data_block_1
_audit_creation_date         'Fri Apr 10 17:49:18 2020'
_audit_creation_method       'generated by GDIS v0.90'


_cell_length_a             33.9864
_cell_length_b             33.9864
_cell_length_c             33.9864
_cell_angle_alpha          90.00
_cell_angle_beta           90.00
_cell_angle_gamma          90.00


_symmetry_space_group_name_H-M   'P 1'
_symmetry_Int_Tables_number       1


loop_
_atom_site_label
_atom_site_fract_x
_atom_site_fract_y
_atom_site_fract_z
 C    0.1850    0.4485    0.3434
 N    0.2050    0.4837    0.3415
 H    0.1887    0.4283    0.3614
 H    0.1809    0.0597    0.2873
 C    0.4350    0.1985    0.0934
 N    0.4550    0.2337    0.0915
 H    0.4387    0.1783    0.1114
 H    0.4309    0.3097    0.0373
 C    0.3150    0.0515    0.3434
 N    0.2950    0.0163    0.3415
 H    0.3113    0.0717    0.3614
 H    0.3191    0.4403    0.2873
 C    0.0649    0.3015    0.0934
 N    0.0450    0.2663    0.0915
 H    0.0613    0.3217    0.1114
 H    0.0691    0.1903    0.0373
 C    0.3150    0.4485    0.1566
 N    0.2950    0.4837    0.1585
 H    0.3113    0.4283    0.1386
 H    0.3191    0.0597    0.2127
 C    0.0649    0.1985    0.4066
 N    0.0450    0.2337    0.4085
 H    0.0613    0.1783    0.3886
 H    0.0691    0.3097    0.4627
 C    0.1850    0.0515    0.1566
 N    0.2050    0.0163    0.1585
 H    0.1887    0.0717    0.1386
 H    0.1809    0.4403    0.2127
 C    0.4350    0.3015    0.4066
 N    0.4550    0.2663    0.4085
 H    0.4387    0.3217    0.3886
 H    0.4309    0.1903    0.4626
 C    0.3434    0.1850    0.4485
 N    0.3415    0.2050    0.4837
 H    0.3614    0.1887    0.4283
 H    0.2873    0.1809    0.0597
 C    0.0934    0.4350    0.1985
 N    0.0915    0.4550    0.2337
 H    0.1114    0.4387    0.1783
 H    0.0374    0.4309    0.3097
 C    0.3434    0.3150    0.0515
 N    0.3415    0.2950    0.0163
 H    0.3614    0.3113    0.0717
 H    0.2873    0.3191    0.4403
 C    0.0934    0.0649    0.3015
 N    0.0915    0.0450    0.2663
 H    0.1114    0.0613    0.3217
 H    0.0374    0.0691    0.1903
 C    0.1566    0.3150    0.4485
 N    0.1585    0.2950    0.4837
 H    0.1386    0.3113    0.4283
 H    0.2127    0.3191    0.0597
 C    0.4066    0.0649    0.1985
 N    0.4085    0.0450    0.2337
 H    0.3886    0.0613    0.1783
 H    0.4627    0.0691    0.3097
 C    0.1566    0.1850    0.0515
 N    0.1585    0.2050    0.0163
 H    0.1386    0.1887    0.0717
 H    0.2127    0.1809    0.4403
 C    0.4066    0.4350    0.3015
 N    0.4085    0.4550    0.2663
 H    0.3886    0.4387    0.3217
 H    0.4627    0.4309    0.1903
 C    0.4485    0.3434    0.1850
 N    0.4837    0.3415    0.2050
 H    0.4283    0.3614    0.1887
 H    0.0597    0.2873    0.1809
 C    0.1985    0.0934    0.4350
 N    0.2337    0.0915    0.4550
 H    0.1783    0.1114    0.4387
 H    0.3097    0.0373    0.4309
 C    0.0515    0.3434    0.3150
 N    0.0163    0.3415    0.2950
 H    0.0717    0.3614    0.3113
 H    0.4403    0.2873    0.3191
 C    0.3015    0.0934    0.0649
 N    0.2663    0.0915    0.0450
 H    0.3217    0.1114    0.0613
 H    0.1903    0.0373    0.0691
 C    0.4485    0.1566    0.3150
 N    0.4837    0.1585    0.2950
 H    0.4283    0.1386    0.3113
 H    0.0597    0.2127    0.3191
 C    0.1985    0.4066    0.0649
 N    0.2337    0.4085    0.0450
 H    0.1783    0.3886    0.0613
 H    0.3097    0.4627    0.0691
 C    0.0515    0.1566    0.1850
 N    0.0163    0.1585    0.2050
 H    0.0717    0.1386    0.1887
 H    0.4403    0.2127    0.1809
 C    0.3015    0.4066    0.4350
 N    0.2663    0.4085    0.4550
 H    0.3217    0.3886    0.4387
 H    0.1903    0.4627    0.4309
 C    0.4485    0.1850    0.3434
 N    0.4837    0.2050    0.3415
 H    0.4283    0.1887    0.3614
 H    0.0597    0.1809    0.2873
 C    0.1985    0.4350    0.0934
 N    0.2337    0.4550    0.0915
 H    0.1783    0.4387    0.1114
 H    0.3097    0.4309    0.0373
 C    0.0515    0.3150    0.3434
 N    0.0163    0.2950    0.3415
 H    0.0717    0.3113    0.3614
 H    0.4403    0.3191    0.2873
 C    0.3015    0.0649    0.0934
 N    0.2663    0.0450    0.0915
 H    0.3217    0.0613    0.1114
 H    0.1903    0.0691    0.0373
 C    0.4485    0.3150    0.1566
 N    0.4837    0.2950    0.1585
 H    0.4283    0.3113    0.1386
 H    0.0597    0.3191    0.2127
 C    0.1985    0.0649    0.4066
 N    0.2337    0.0450    0.4085
 H    0.1783    0.0613    0.3886
 H    0.3097    0.0691    0.4627
 C    0.0515    0.1850    0.1566
 N    0.0163    0.2050    0.1585
 H    0.0717    0.1887    0.1386
 H    0.4403    0.1809    0.2127
 C    0.3015    0.4350    0.4066
 N    0.2663    0.4550    0.4085
 H    0.3217    0.4387    0.3886
 H    0.1903    0.4309    0.4627
 C    0.1850    0.3434    0.4485
 N    0.2050    0.3415    0.4837
 H    0.1887    0.3614    0.4283
 H    0.1809    0.2873    0.0597
 C    0.4350    0.0934    0.1985
 N    0.4550    0.0915    0.2337
 H    0.4387    0.1114    0.1783
 H    0.4309    0.0373    0.3097
 C    0.3150    0.3434    0.0515
 N    0.2950    0.3415    0.0163
 H    0.3113    0.3614    0.0717
 H    0.3191    0.2873    0.4403
 C    0.0649    0.0934    0.3015
 N    0.0450    0.0915    0.2663
 H    0.0613    0.1114    0.3217
 H    0.0691    0.0373    0.1903
 C    0.3150    0.1566    0.4485
 N    0.2950    0.1585    0.4837
 H    0.3113    0.1386    0.4283
 H    0.3191    0.2127    0.0597
 C    0.0649    0.4066    0.1985
 N    0.0450    0.4085    0.2337
 H    0.0613    0.3886    0.1783
 H    0.0691    0.4627    0.3097
 C    0.1850    0.1566    0.0515
 N    0.2050    0.1585    0.0163
 H    0.1887    0.1386    0.0717
 H    0.1809    0.2127    0.4403
 C    0.4350    0.4066    0.3015
 N    0.4550    0.4085    0.2663
 H    0.4387    0.3886    0.3217
 H    0.4309    0.4627    0.1903
 C    0.3434    0.4485    0.1850
 N    0.3415    0.4837    0.2050
 H    0.3614    0.4283    0.1887
 H    0.2873    0.0597    0.1809
 C    0.0934    0.1985    0.4350
 N    0.0915    0.2337    0.4550
 H    0.1114    0.1783    0.4387
 H    0.0374    0.3097    0.4309
 C    0.3434    0.0515    0.3150
 N    0.3415    0.0163    0.2950
 H    0.3614    0.0717    0.3113
 H    0.2873    0.4403    0.3191
 C    0.0934    0.3015    0.0649
 N    0.0915    0.2663    0.0450
 H    0.1114    0.3217    0.0613
 H    0.0374    0.1903    0.0691
 C    0.1566    0.4485    0.3150
 N    0.1585    0.4837    0.2950
 H    0.1386    0.4283    0.3113
 H    0.2127    0.0597    0.3191
 C    0.4066    0.1985    0.0649
 N    0.4085    0.2337    0.0450
 H    0.3886    0.1783    0.0613
 H    0.4627    0.3097    0.0691
 C    0.1566    0.0515    0.1850
 N    0.1585    0.0163    0.2050
 H    0.1386    0.0717    0.1887
 H    0.2127    0.4403    0.1809
 C    0.4066    0.3015    0.4350
 N    0.4085    0.2663    0.4550
 H    0.3886    0.3217    0.4387
 H    0.4627    0.1903    0.4309
Zn    0.2500    0.0000    0.3750
Zn    0.2500    0.0000    0.1250
Zn    0.3750    0.2500    0.5000
Zn    0.1250    0.2500    0.0000
Zn    0.0000    0.3750    0.2500
Zn    0.0000    0.1250    0.2500
Zn    0.5000    0.2500    0.3750
Zn    0.0000    0.2500    0.1250
Zn    0.2500    0.3750    0.0000
Zn    0.2500    0.1250    0.0000
Zn    0.3750    0.0000    0.2500
Zn    0.1250    0.0000    0.2500
 C    0.1886    0.0006    0.3114
 C    0.2021    0.0423    0.2979
 H    0.2208    0.0413    0.2792
 C    0.4386    0.2506    0.0614
 C    0.4521    0.2923    0.0479
 H    0.4708    0.2913    0.0292
 C    0.3114    0.4994    0.3114
 C    0.2979    0.4577    0.2979
 H    0.2792    0.4587    0.2792
 C    0.0614    0.2494    0.0614
 C    0.0479    0.2077    0.0479
 H    0.0292    0.2087    0.0292
 C    0.3114    0.0006    0.1886
 C    0.2979    0.0423    0.2021
 H    0.2792    0.0413    0.2208
 C    0.0614    0.2506    0.4386
 C    0.0479    0.2923    0.4521
 H    0.0292    0.2913    0.4708
 C    0.1886    0.4994    0.1886
 C    0.2021    0.4577    0.2021
 H    0.2208    0.4587    0.2208
 C    0.4386    0.2494    0.4386
 C    0.4521    0.2077    0.4521
 H    0.4708    0.2087    0.4708
 C    0.3114    0.1886    0.0006
 C    0.2979    0.2021    0.0423
 H    0.2792    0.2208    0.0413
 C    0.0614    0.4386    0.2506
 C    0.0479    0.4521    0.2923
 H    0.0292    0.4708    0.2913
 C    0.3114    0.3114    0.4994
 C    0.2979    0.2979    0.4577
 H    0.2792    0.2792    0.4587
 C    0.0614    0.0614    0.2494
 C    0.0479    0.0479    0.2077
 H    0.0292    0.0292    0.2087
 C    0.1886    0.3114    0.0006
 C    0.2021    0.2979    0.0423
 H    0.2208    0.2792    0.0413
 C    0.4386    0.0614    0.2506
 C    0.4521    0.0479    0.2923
 H    0.4708    0.0292    0.2913
 C    0.1886    0.1886    0.4994
 C    0.2021    0.2021    0.4577
 H    0.2208    0.2208    0.4587
 C    0.4386    0.4386    0.2494
 C    0.4521    0.4521    0.2077
 H    0.4708    0.4708    0.2087
 C    0.0006    0.3114    0.1886
 C    0.0423    0.2979    0.2021
 H    0.0413    0.2792    0.2208
 C    0.2506    0.0614    0.4386
 C    0.2923    0.0479    0.4521
 H    0.2913    0.0292    0.4708
 C    0.4994    0.3114    0.3114
 C    0.4577    0.2979    0.2979
 H    0.4587    0.2792    0.2792
 C    0.2494    0.0614    0.0614
 C    0.2077    0.0479    0.0479
 H    0.2087    0.0292    0.0292
 C    0.0006    0.1886    0.3114
 C    0.0423    0.2021    0.2979
 H    0.0413    0.2208    0.2792
 C    0.2506    0.4386    0.0614
 C    0.2923    0.4521    0.0479
 H    0.2913    0.4708    0.0292
 C    0.4994    0.1886    0.1886
 C    0.4577    0.2021    0.2021
 H    0.4587    0.2208    0.2208
 C    0.2494    0.4386    0.4386
 C    0.2077    0.4521    0.4521
 H    0.2087    0.4708    0.4708
 C    0.6850    0.9485    0.8434
 N    0.7050    0.9837    0.8415
 H    0.6887    0.9283    0.8614
 H    0.6809    0.5597    0.7873
 C    0.9350    0.6985    0.5934
 N    0.9550    0.7337    0.5915
 H    0.9387    0.6783    0.6114
 H    0.9309    0.8097    0.5373
 C    0.8150    0.5515    0.8434
 N    0.7950    0.5163    0.8415
 H    0.8113    0.5717    0.8614
 H    0.8191    0.9403    0.7873
 C    0.5649    0.8015    0.5934
 N    0.5450    0.7663    0.5915
 H    0.5613    0.8217    0.6114
 H    0.5691    0.6903    0.5373
 C    0.8150    0.9485    0.6566
 N    0.7950    0.9837    0.6585
 H    0.8113    0.9283    0.6386
 H    0.8191    0.5597    0.7127
 C    0.5649    0.6985    0.9066
 N    0.5450    0.7337    0.9085
 H    0.5613    0.6783    0.8886
 H    0.5691    0.8097    0.9627
 C    0.6850    0.5515    0.6566
 N    0.7050    0.5163    0.6585
 H    0.6887    0.5717    0.6386
 H    0.6809    0.9403    0.7127
 C    0.9350    0.8015    0.9066
 N    0.9550    0.7663    0.9085
 H    0.9387    0.8217    0.8886
 H    0.9309    0.6903    0.9627
 C    0.8434    0.6850    0.9485
 N    0.8415    0.7050    0.9837
 H    0.8614    0.6887    0.9283
 H    0.7873    0.6809    0.5597
 C    0.5934    0.9350    0.6985
 N    0.5915    0.9550    0.7337
 H    0.6114    0.9387    0.6783
 H    0.5373    0.9309    0.8097
 C    0.8434    0.8150    0.5515
 N    0.8415    0.7950    0.5163
 H    0.8614    0.8113    0.5717
 H    0.7873    0.8191    0.9403
 C    0.5934    0.5649    0.8015
 N    0.5915    0.5450    0.7663
 H    0.6114    0.5613    0.8217
 H    0.5373    0.5691    0.6903
 C    0.6566    0.8150    0.9485
 N    0.6585    0.7950    0.9837
 H    0.6386    0.8113    0.9283
 H    0.7127    0.8191    0.5597
 C    0.9066    0.5649    0.6985
 N    0.9085    0.5450    0.7337
 H    0.8886    0.5613    0.6783
 H    0.9627    0.5691    0.8097
 C    0.6566    0.6850    0.5515
 N    0.6585    0.7050    0.5163
 H    0.6386    0.6887    0.5717
 H    0.7127    0.6809    0.9403
 C    0.9066    0.9350    0.8015
 N    0.9085    0.9550    0.7663
 H    0.8886    0.9387    0.8217
 H    0.9627    0.9309    0.6903
 C    0.9485    0.8434    0.6850
 N    0.9837    0.8415    0.7050
 H    0.9283    0.8614    0.6887
 H    0.5597    0.7873    0.6809
 C    0.6985    0.5934    0.9350
 N    0.7337    0.5915    0.9550
 H    0.6783    0.6114    0.9387
 H    0.8097    0.5373    0.9309
 C    0.5515    0.8434    0.8150
 N    0.5163    0.8415    0.7950
 H    0.5717    0.8614    0.8113
 H    0.9403    0.7873    0.8191
 C    0.8015    0.5934    0.5649
 N    0.7663    0.5915    0.5450
 H    0.8217    0.6114    0.5613
 H    0.6903    0.5373    0.5691
 C    0.9485    0.6566    0.8150
 N    0.9837    0.6585    0.7950
 H    0.9283    0.6386    0.8113
 H    0.5597    0.7127    0.8191
 C    0.6985    0.9066    0.5649
 N    0.7337    0.9085    0.5450
 H    0.6783    0.8886    0.5613
 H    0.8097    0.9627    0.5691
 C    0.5515    0.6566    0.6850
 N    0.5163    0.6585    0.7050
 H    0.5717    0.6386    0.6887
 H    0.9403    0.7127    0.6809
 C    0.8015    0.9066    0.9350
 N    0.7663    0.9085    0.9550
 H    0.8217    0.8886    0.9387
 H    0.6903    0.9627    0.9309
 C    0.9485    0.6850    0.8434
 N    0.9837    0.7050    0.8415
 H    0.9283    0.6887    0.8614
 H    0.5597    0.6809    0.7873
 C    0.6985    0.9350    0.5934
 N    0.7337    0.9550    0.5915
 H    0.6783    0.9387    0.6114
 H    0.8097    0.9309    0.5373
 C    0.5515    0.8150    0.8434
 N    0.5163    0.7950    0.8415
 H    0.5717    0.8113    0.8614
 H    0.9403    0.8191    0.7873
 C    0.8015    0.5649    0.5934
 N    0.7663    0.5450    0.5915
 H    0.8217    0.5613    0.6114
 H    0.6903    0.5691    0.5373
 C    0.9485    0.8150    0.6566
 N    0.9837    0.7950    0.6585
 H    0.9283    0.8113    0.6386
 H    0.5597    0.8191    0.7127
 C    0.6985    0.5649    0.9066
 N    0.7337    0.5450    0.9085
 H    0.6783    0.5613    0.8886
 H    0.8097    0.5691    0.9627
 C    0.5515    0.6850    0.6566
 N    0.5163    0.7050    0.6585
 H    0.5717    0.6887    0.6386
 H    0.9403    0.6809    0.7127
 C    0.8015    0.9350    0.9066
 N    0.7663    0.9550    0.9085
 H    0.8217    0.9387    0.8886
 H    0.6903    0.9309    0.9627
 C    0.6850    0.8434    0.9485
 N    0.7050    0.8415    0.9837
 H    0.6887    0.8614    0.9283
 H    0.6809    0.7873    0.5597
 C    0.9350    0.5934    0.6985
 N    0.9550    0.5915    0.7337
 H    0.9387    0.6114    0.6783
 H    0.9309    0.5373    0.8097
 C    0.8150    0.8434    0.5515
 N    0.7950    0.8415    0.5163
 H    0.8113    0.8614    0.5717
 H    0.8191    0.7873    0.9403
 C    0.5649    0.5934    0.8015
 N    0.5450    0.5915    0.7663
 H    0.5613    0.6114    0.8217
 H    0.5691    0.5373    0.6903
 C    0.8150    0.6566    0.9485
 N    0.7950    0.6585    0.9837
 H    0.8113    0.6386    0.9283
 H    0.8191    0.7127    0.5597
 C    0.5649    0.9066    0.6985
 N    0.5450    0.9085    0.7337
 H    0.5613    0.8886    0.6783
 H    0.5691    0.9627    0.8097
 C    0.6850    0.6566    0.5515
 N    0.7050    0.6585    0.5163
 H    0.6887    0.6386    0.5717
 H    0.6809    0.7127    0.9403
 C    0.9350    0.9066    0.8015
 N    0.9550    0.9085    0.7663
 H    0.9387    0.8886    0.8217
 H    0.9309    0.9627    0.6903
 C    0.8434    0.9485    0.6850
 N    0.8415    0.9837    0.7050
 H    0.8614    0.9283    0.6887
 H    0.7873    0.5597    0.6809
 C    0.5934    0.6985    0.9350
 N    0.5915    0.7337    0.9550
 H    0.6114    0.6783    0.9387
 H    0.5373    0.8097    0.9309
 C    0.8434    0.5515    0.8150
 N    0.8415    0.5163    0.7950
 H    0.8614    0.5717    0.8113
 H    0.7873    0.9403    0.8191
 C    0.5934    0.8015    0.5649
 N    0.5915    0.7663    0.5450
 H    0.6114    0.8217    0.5613
 H    0.5373    0.6903    0.5691
 C    0.6566    0.9485    0.8150
 N    0.6585    0.9837    0.7950
 H    0.6386    0.9283    0.8113
 H    0.7127    0.5597    0.8191
 C    0.9066    0.6985    0.5649
 N    0.9085    0.7337    0.5450
 H    0.8886    0.6783    0.5613
 H    0.9627    0.8097    0.5691
 C    0.6566    0.5515    0.6850
 N    0.6585    0.5163    0.7050
 H    0.6386    0.5717    0.6887
 H    0.7127    0.9403    0.6809
 C    0.9066    0.8015    0.9350
 N    0.9085    0.7663    0.9550
 H    0.8886    0.8217    0.9387
 H    0.9627    0.6903    0.9309
Zn    0.7500    0.5000    0.8750
Zn    0.7500    0.5000    0.6250
Zn    0.8750    0.7500    0.0000
Zn    0.6250    0.7500    0.5000
Zn    0.5000    0.8750    0.7500
Zn    0.5000    0.6250    0.7500
Zn    0.0000    0.7500    0.8750
Zn    0.5000    0.7500    0.6250
Zn    0.7500    0.8750    0.5000
Zn    0.7500    0.6250    0.5000
Zn    0.8750    0.5000    0.7500
Zn    0.6250    0.5000    0.7500
 C    0.6886    0.5006    0.8114
 C    0.7021    0.5423    0.7979
 H    0.7208    0.5413    0.7792
 C    0.9386    0.7506    0.5614
 C    0.9521    0.7923    0.5479
 H    0.9708    0.7913    0.5292
 C    0.8114    0.9994    0.8114
 C    0.7979    0.9577    0.7979
 H    0.7792    0.9587    0.7792
 C    0.5614    0.7494    0.5614
 C    0.5479    0.7077    0.5479
 H    0.5292    0.7087    0.5292
 C    0.8114    0.5006    0.6886
 C    0.7979    0.5423    0.7021
 H    0.7792    0.5413    0.7208
 C    0.5614    0.7506    0.9386
 C    0.5479    0.7923    0.9521
 H    0.5292    0.7913    0.9708
 C    0.6886    0.9994    0.6886
 C    0.7021    0.9577    0.7021
 H    0.7208    0.9587    0.7208
 C    0.9386    0.7494    0.9386
 C    0.9521    0.7077    0.9521
 H    0.9708    0.7087    0.9708
 C    0.8114    0.6886    0.5006
 C    0.7979    0.7021    0.5423
 H    0.7792    0.7208    0.5413
 C    0.5614    0.9386    0.7506
 C    0.5479    0.9521    0.7923
 H    0.5292    0.9708    0.7913
 C    0.8114    0.8114    0.9994
 C    0.7979    0.7979    0.9577
 H    0.7792    0.7792    0.9587
 C    0.5614    0.5614    0.7494
 C    0.5479    0.5479    0.7077
 H    0.5292    0.5292    0.7087
 C    0.6886    0.8114    0.5006
 C    0.7021    0.7979    0.5423
 H    0.7208    0.7792    0.5413
 C    0.9386    0.5614    0.7506
 C    0.9521    0.5479    0.7923
 H    0.9708    0.5292    0.7913
 C    0.6886    0.6886    0.9994
 C    0.7021    0.7021    0.9577
 H    0.7208    0.7208    0.9587
 C    0.9386    0.9386    0.7494
 C    0.9521    0.9521    0.7077
 H    0.9708    0.9708    0.7087
 C    0.5006    0.8114    0.6886
 C    0.5423    0.7979    0.7021
 H    0.5413    0.7792    0.7208
 C    0.7506    0.5614    0.9386
 C    0.7923    0.5479    0.9521
 H    0.7913    0.5292    0.9708
 C    0.9994    0.8114    0.8114
 C    0.9577    0.7979    0.7979
 H    0.9587    0.7792    0.7792
 C    0.7494    0.5614    0.5614
 C    0.7077    0.5479    0.5479
 H    0.7087    0.5292    0.5292
 C    0.5006    0.6886    0.8114
 C    0.5423    0.7021    0.7979
 H    0.5413    0.7208    0.7792
 C    0.7506    0.9386    0.5614
 C    0.7923    0.9521    0.5479
 H    0.7913    0.9708    0.5292
 C    0.9994    0.6886    0.6886
 C    0.9577    0.7021    0.7021
 H    0.9587    0.7208    0.7208
 C    0.7494    0.9386    0.9386
 C    0.7077    0.9521    0.9521
 H    0.7087    0.9708    0.9708
 C    0.1850    0.9485    0.8434
 N    0.2050    0.9837    0.8415
 H    0.1887    0.9283    0.8614
 H    0.1809    0.5597    0.7873
 C    0.4350    0.6985    0.5934
 N    0.4550    0.7337    0.5915
 H    0.4387    0.6783    0.6114
 H    0.4309    0.8097    0.5373
 C    0.3150    0.5515    0.8434
 N    0.2950    0.5163    0.8415
 H    0.3113    0.5717    0.8614
 H    0.3191    0.9403    0.7873
 C    0.0649    0.8015    0.5934
 N    0.0450    0.7663    0.5915
 H    0.0613    0.8217    0.6114
 H    0.0691    0.6903    0.5373
 C    0.3150    0.9485    0.6566
 N    0.2950    0.9837    0.6585
 H    0.3113    0.9283    0.6386
 H    0.3191    0.5597    0.7127
 C    0.0649    0.6985    0.9066
 N    0.0450    0.7337    0.9085
 H    0.0613    0.6783    0.8886
 H    0.0691    0.8097    0.9627
 C    0.1850    0.5515    0.6566
 N    0.2050    0.5163    0.6585
 H    0.1887    0.5717    0.6386
 H    0.1809    0.9403    0.7127
 C    0.4350    0.8015    0.9066
 N    0.4550    0.7663    0.9085
 H    0.4387    0.8217    0.8886
 H    0.4309    0.6903    0.9627
 C    0.3434    0.6850    0.9485
 N    0.3415    0.7050    0.9837
 H    0.3614    0.6887    0.9283
 H    0.2873    0.6809    0.5597
 C    0.0934    0.9350    0.6985
 N    0.0915    0.9550    0.7337
 H    0.1114    0.9387    0.6783
 H    0.0374    0.9309    0.8097
 C    0.3434    0.8150    0.5515
 N    0.3415    0.7950    0.5163
 H    0.3614    0.8113    0.5717
 H    0.2873    0.8191    0.9403
 C    0.0934    0.5649    0.8015
 N    0.0915    0.5450    0.7663
 H    0.1114    0.5613    0.8217
 H    0.0374    0.5691    0.6903
 C    0.1566    0.8150    0.9485
 N    0.1585    0.7950    0.9837
 H    0.1386    0.8113    0.9283
 H    0.2127    0.8191    0.5597
 C    0.4066    0.5649    0.6985
 N    0.4085    0.5450    0.7337
 H    0.3886    0.5613    0.6783
 H    0.4627    0.5691    0.8097
 C    0.1566    0.6850    0.5515
 N    0.1585    0.7050    0.5163
 H    0.1386    0.6887    0.5717
 H    0.2127    0.6809    0.9403
 C    0.4066    0.9350    0.8015
 N    0.4085    0.9550    0.7663
 H    0.3886    0.9387    0.8217
 H    0.4627    0.9309    0.6903
 C    0.4485    0.8434    0.6850
 N    0.4837    0.8415    0.7050
 H    0.4283    0.8614    0.6887
 H    0.0597    0.7873    0.6809
 C    0.1985    0.5934    0.9350
 N    0.2337    0.5915    0.9550
 H    0.1783    0.6114    0.9387
 H    0.3097    0.5373    0.9309
 C    0.0515    0.8434    0.8150
 N    0.0163    0.8415    0.7950
 H    0.0717    0.8614    0.8113
 H    0.4403    0.7873    0.8191
 C    0.3015    0.5934    0.5649
 N    0.2663    0.5915    0.5450
 H    0.3217    0.6114    0.5613
 H    0.1903    0.5373    0.5691
 C    0.4485    0.6566    0.8150
 N    0.4837    0.6585    0.7950
 H    0.4283    0.6386    0.8113
 H    0.0597    0.7127    0.8191
 C    0.1985    0.9066    0.5649
 N    0.2337    0.9085    0.5450
 H    0.1783    0.8886    0.5613
 H    0.3097    0.9627    0.5691
 C    0.0515    0.6566    0.6850
 N    0.0163    0.6585    0.7050
 H    0.0717    0.6386    0.6887
 H    0.4403    0.7127    0.6809
 C    0.3015    0.9066    0.9350
 N    0.2663    0.9085    0.9550
 H    0.3217    0.8886    0.9387
 H    0.1903    0.9627    0.9309
 C    0.4485    0.6850    0.8434
 N    0.4837    0.7050    0.8415
 H    0.4283    0.6887    0.8614
 H    0.0597    0.6809    0.7873
 C    0.1985    0.9350    0.5934
 N    0.2337    0.9550    0.5915
 H    0.1783    0.9387    0.6114
 H    0.3097    0.9309    0.5373
 C    0.0515    0.8150    0.8434
 N    0.0163    0.7950    0.8415
 H    0.0717    0.8113    0.8614
 H    0.4403    0.8191    0.7873
 C    0.3015    0.5649    0.5934
 N    0.2663    0.5450    0.5915
 H    0.3217    0.5613    0.6114
 H    0.1903    0.5691    0.5373
 C    0.4485    0.8150    0.6566
 N    0.4837    0.7950    0.6585
 H    0.4283    0.8113    0.6386
 H    0.0597    0.8191    0.7127
 C    0.1985    0.5649    0.9066
 N    0.2337    0.5450    0.9085
 H    0.1783    0.5613    0.8886
 H    0.3097    0.5691    0.9627
 C    0.0515    0.6850    0.6566
 N    0.0163    0.7050    0.6585
 H    0.0717    0.6887    0.6386
 H    0.4403    0.6809    0.7127
 C    0.3015    0.9350    0.9066
 N    0.2663    0.9550    0.9085
 H    0.3217    0.9387    0.8886
 H    0.1903    0.9309    0.9627
 C    0.1850    0.8434    0.9485
 N    0.2050    0.8415    0.9837
 H    0.1887    0.8614    0.9283
 H    0.1809    0.7873    0.5597
 C    0.4350    0.5934    0.6985
 N    0.4550    0.5915    0.7337
 H    0.4387    0.6114    0.6783
 H    0.4309    0.5373    0.8097
 C    0.3150    0.8434    0.5515
 N    0.2950    0.8415    0.5163
 H    0.3113    0.8614    0.5717
 H    0.3191    0.7873    0.9403
 C    0.0649    0.5934    0.8015
 N    0.0450    0.5915    0.7663
 H    0.0613    0.6114    0.8217
 H    0.0691    0.5373    0.6903
 C    0.3150    0.6566    0.9485
 N    0.2950    0.6585    0.9837
 H    0.3113    0.6386    0.9283
 H    0.3191    0.7127    0.5597
 C    0.0649    0.9066    0.6985
 N    0.0450    0.9085    0.7337
 H    0.0613    0.8886    0.6783
 H    0.0691    0.9627    0.8097
 C    0.1850    0.6566    0.5515
 N    0.2050    0.6585    0.5163
 H    0.1887    0.6386    0.5717
 H    0.1809    0.7127    0.9403
 C    0.4350    0.9066    0.8015
 N    0.4550    0.9085    0.7663
 H    0.4387    0.8886    0.8217
 H    0.4309    0.9627    0.6903
 C    0.3434    0.9485    0.6850
 N    0.3415    0.9837    0.7050
 H    0.3614    0.9283    0.6887
 H    0.2873    0.5597    0.6809
 C    0.0934    0.6985    0.9350
 N    0.0915    0.7337    0.9550
 H    0.1114    0.6783    0.9387
 H    0.0374    0.8097    0.9309
 C    0.3434    0.5515    0.8150
 N    0.3415    0.5163    0.7950
 H    0.3614    0.5717    0.8113
 H    0.2873    0.9403    0.8191
 C    0.0934    0.8015    0.5649
 N    0.0915    0.7663    0.5450
 H    0.1114    0.8217    0.5613
 H    0.0374    0.6903    0.5691
 C    0.1566    0.9485    0.8150
 N    0.1585    0.9837    0.7950
 H    0.1386    0.9283    0.8113
 H    0.2127    0.5597    0.8191
 C    0.4066    0.6985    0.5649
 N    0.4085    0.7337    0.5450
 H    0.3886    0.6783    0.5613
 H    0.4627    0.8097    0.5691
 C    0.1566    0.5515    0.6850
 N    0.1585    0.5163    0.7050
 H    0.1386    0.5717    0.6887
 H    0.2127    0.9403    0.6809
 C    0.4066    0.8015    0.9350
 N    0.4085    0.7663    0.9550
 H    0.3886    0.8217    0.9387
 H    0.4627    0.6903    0.9309
Zn    0.2500    0.5000    0.8750
Zn    0.2500    0.5000    0.6250
Zn    0.3750    0.7500    0.0000
Zn    0.1250    0.7500    0.5000
Zn    0.0000    0.8750    0.7500
Zn    0.0000    0.6250    0.7500
Zn    0.5000    0.7500    0.8750
Zn    0.0000    0.7500    0.6250
Zn    0.2500    0.8750    0.5000
Zn    0.2500    0.6250    0.5000
Zn    0.3750    0.5000    0.7500
Zn    0.1250    0.5000    0.7500
 C    0.1886    0.5006    0.8114
 C    0.2021    0.5423    0.7979
 H    0.2208    0.5413    0.7792
 C    0.4386    0.7506    0.5614
 C    0.4521    0.7923    0.5479
 H    0.4708    0.7913    0.5292
 C    0.3114    0.9994    0.8114
 C    0.2979    0.9577    0.7979
 H    0.2792    0.9587    0.7792
 C    0.0614    0.7494    0.5614
 C    0.0479    0.7077    0.5479
 H    0.0292    0.7087    0.5292
 C    0.3114    0.5006    0.6886
 C    0.2979    0.5423    0.7021
 H    0.2792    0.5413    0.7208
 C    0.0614    0.7506    0.9386
 C    0.0479    0.7923    0.9521
 H    0.0292    0.7913    0.9708
 C    0.1886    0.9994    0.6886
 C    0.2021    0.9577    0.7021
 H    0.2208    0.9587    0.7208
 C    0.4386    0.7494    0.9386
 C    0.4521    0.7077    0.9521
 H    0.4708    0.7087    0.9708
 C    0.3114    0.6886    0.5006
 C    0.2979    0.7021    0.5423
 H    0.2792    0.7208    0.5413
 C    0.0614    0.9386    0.7506
 C    0.0479    0.9521    0.7923
 H    0.0292    0.9708    0.7913
 C    0.3114    0.8114    0.9994
 C    0.2979    0.7979    0.9577
 H    0.2792    0.7792    0.9587
 C    0.0614    0.5614    0.7494
 C    0.0479    0.5479    0.7077
 H    0.0292    0.5292    0.7087
 C    0.1886    0.8114    0.5006
 C    0.2021    0.7979    0.5423
 H    0.2208    0.7792    0.5413
 C    0.4386    0.5614    0.7506
 C    0.4521    0.5479    0.7923
 H    0.4708    0.5292    0.7913
 C    0.1886    0.6886    0.9994
 C    0.2021    0.7021    0.9577
 H    0.2208    0.7208    0.9587
 C    0.4386    0.9386    0.7494
 C    0.4521    0.9521    0.7077
 H    0.4708    0.9708    0.7087
 C    0.0006    0.8114    0.6886
 C    0.0423    0.7979    0.7021
 H    0.0413    0.7792    0.7208
 C    0.2506    0.5614    0.9386
 C    0.2923    0.5479    0.9521
 H    0.2913    0.5292    0.9708
 C    0.4994    0.8114    0.8114
 C    0.4577    0.7979    0.7979
 H    0.4587    0.7792    0.7792
 C    0.2494    0.5614    0.5614
 C    0.2077    0.5479    0.5479
 H    0.2087    0.5292    0.5292
 C    0.0006    0.6886    0.8114
 C    0.0423    0.7021    0.7979
 H    0.0413    0.7208    0.7792
 C    0.2506    0.9386    0.5614
 C    0.2923    0.9521    0.5479
 H    0.2913    0.9708    0.5292
 C    0.4994    0.6886    0.6886
 C    0.4577    0.7021    0.7021
 H    0.4587    0.7208    0.7208
 C    0.2494    0.9386    0.9386
 C    0.2077    0.9521    0.9521
 H    0.2087    0.9708    0.9708
 C    0.6850    0.4485    0.8434
 N    0.7050    0.4837    0.8415
 H    0.6887    0.4283    0.8614
 H    0.6809    0.0597    0.7873
 C    0.9350    0.1985    0.5934
 N    0.9550    0.2337    0.5915
 H    0.9387    0.1783    0.6114
 H    0.9309    0.3097    0.5373
 C    0.8150    0.0515    0.8434
 N    0.7950    0.0163    0.8415
 H    0.8113    0.0717    0.8614
 H    0.8191    0.4403    0.7873
 C    0.5649    0.3015    0.5934
 N    0.5450    0.2663    0.5915
 H    0.5613    0.3217    0.6114
 H    0.5691    0.1903    0.5373
 C    0.8150    0.4485    0.6566
 N    0.7950    0.4837    0.6585
 H    0.8113    0.4283    0.6386
 H    0.8191    0.0597    0.7127
 C    0.5649    0.1985    0.9066
 N    0.5450    0.2337    0.9085
 H    0.5613    0.1783    0.8886
 H    0.5691    0.3097    0.9627
 C    0.6850    0.0515    0.6566
 N    0.7050    0.0163    0.6585
 H    0.6887    0.0717    0.6386
 H    0.6809    0.4403    0.7127
 C    0.9350    0.3015    0.9066
 N    0.9550    0.2663    0.9085
 H    0.9387    0.3217    0.8886
 H    0.9309    0.1903    0.9627
 C    0.8434    0.1850    0.9485
 N    0.8415    0.2050    0.9837
 H    0.8614    0.1887    0.9283
 H    0.7873    0.1809    0.5597
 C    0.5934    0.4350    0.6985
 N    0.5915    0.4550    0.7337
 H    0.6114    0.4387    0.6783
 H    0.5373    0.4309    0.8097
 C    0.8434    0.3150    0.5515
 N    0.8415    0.2950    0.5163
 H    0.8614    0.3113    0.5717
 H    0.7873    0.3191    0.9403
 C    0.5934    0.0649    0.8015
 N    0.5915    0.0450    0.7663
 H    0.6114    0.0613    0.8217
 H    0.5373    0.0691    0.6903
 C    0.6566    0.3150    0.9485
 N    0.6585    0.2950    0.9837
 H    0.6386    0.3113    0.9283
 H    0.7127    0.3191    0.5597
 C    0.9066    0.0649    0.6985
 N    0.9085    0.0450    0.7337
 H    0.8886    0.0613    0.6783
 H    0.9627    0.0691    0.8097
 C    0.6566    0.1850    0.5515
 N    0.6585    0.2050    0.5163
 H    0.6386    0.1887    0.5717
 H    0.7127    0.1809    0.9403
 C    0.9066    0.4350    0.8015
 N    0.9085    0.4550    0.7663
 H    0.8886    0.4387    0.8217
 H    0.9627    0.4309    0.6903
 C    0.9485    0.3434    0.6850
 N    0.9837    0.3415    0.7050
 H    0.9283    0.3614    0.6887
 H    0.5597    0.2873    0.6809
 C    0.6985    0.0934    0.9350
 N    0.7337    0.0915    0.9550
 H    0.6783    0.1114    0.9387
 H    0.8097    0.0373    0.9309
 C    0.5515    0.3434    0.8150
 N    0.5163    0.3415    0.7950
 H    0.5717    0.3614    0.8113
 H    0.9403    0.2873    0.8191
 C    0.8015    0.0934    0.5649
 N    0.7663    0.0915    0.5450
 H    0.8217    0.1114    0.5613
 H    0.6903    0.0373    0.5691
 C    0.9485    0.1566    0.8150
 N    0.9837    0.1585    0.7950
 H    0.9283    0.1386    0.8113
 H    0.5597    0.2127    0.8191
 C    0.6985    0.4066    0.5649
 N    0.7337    0.4085    0.5450
 H    0.6783    0.3886    0.5613
 H    0.8097    0.4627    0.5691
 C    0.5515    0.1566    0.6850
 N    0.5163    0.1585    0.7050
 H    0.5717    0.1386    0.6887
 H    0.9403    0.2127    0.6809
 C    0.8015    0.4066    0.9350
 N    0.7663    0.4085    0.9550
 H    0.8217    0.3886    0.9387
 H    0.6903    0.4627    0.9309
 C    0.9485    0.1850    0.8434
 N    0.9837    0.2050    0.8415
 H    0.9283    0.1887    0.8614
 H    0.5597    0.1809    0.7873
 C    0.6985    0.4350    0.5934
 N    0.7337    0.4550    0.5915
 H    0.6783    0.4387    0.6114
 H    0.8097    0.4309    0.5373
 C    0.5515    0.3150    0.8434
 N    0.5163    0.2950    0.8415
 H    0.5717    0.3113    0.8614
 H    0.9403    0.3191    0.7873
 C    0.8015    0.0649    0.5934
 N    0.7663    0.0450    0.5915
 H    0.8217    0.0613    0.6114
 H    0.6903    0.0691    0.5373
 C    0.9485    0.3150    0.6566
 N    0.9837    0.2950    0.6585
 H    0.9283    0.3113    0.6386
 H    0.5597    0.3191    0.7127
 C    0.6985    0.0649    0.9066
 N    0.7337    0.0450    0.9085
 H    0.6783    0.0613    0.8886
 H    0.8097    0.0691    0.9627
 C    0.5515    0.1850    0.6566
 N    0.5163    0.2050    0.6585
 H    0.5717    0.1887    0.6386
 H    0.9403    0.1809    0.7127
 C    0.8015    0.4350    0.9066
 N    0.7663    0.4550    0.9085
 H    0.8217    0.4387    0.8886
 H    0.6903    0.4309    0.9627
 C    0.6850    0.3434    0.9485
 N    0.7050    0.3415    0.9837
 H    0.6887    0.3614    0.9283
 H    0.6809    0.2873    0.5597
 C    0.9350    0.0934    0.6985
 N    0.9550    0.0915    0.7337
 H    0.9387    0.1114    0.6783
 H    0.9309    0.0373    0.8097
 C    0.8150    0.3434    0.5515
 N    0.7950    0.3415    0.5163
 H    0.8113    0.3614    0.5717
 H    0.8191    0.2873    0.9403
 C    0.5649    0.0934    0.8015
 N    0.5450    0.0915    0.7663
 H    0.5613    0.1114    0.8217
 H    0.5691    0.0373    0.6903
 C    0.8150    0.1566    0.9485
 N    0.7950    0.1585    0.9837
 H    0.8113    0.1386    0.9283
 H    0.8191    0.2127    0.5597
 C    0.5649    0.4066    0.6985
 N    0.5450    0.4085    0.7337
 H    0.5613    0.3886    0.6783
 H    0.5691    0.4627    0.8097
 C    0.6850    0.1566    0.5515
 N    0.7050    0.1585    0.5163
 H    0.6887    0.1386    0.5717
 H    0.6809    0.2127    0.9403
 C    0.9350    0.4066    0.8015
 N    0.9550    0.4085    0.7663
 H    0.9387    0.3886    0.8217
 H    0.9309    0.4627    0.6903
 C    0.8434    0.4485    0.6850
 N    0.8415    0.4837    0.7050
 H    0.8614    0.4283    0.6887
 H    0.7873    0.0597    0.6809
 C    0.5934    0.1985    0.9350
 N    0.5915    0.2337    0.9550
 H    0.6114    0.1783    0.9387
 H    0.5373    0.3097    0.9309
 C    0.8434    0.0515    0.8150
 N    0.8415    0.0163    0.7950
 H    0.8614    0.0717    0.8113
 H    0.7873    0.4403    0.8191
 C    0.5934    0.3015    0.5649
 N    0.5915    0.2663    0.5450
 H    0.6114    0.3217    0.5613
 H    0.5373    0.1903    0.5691
 C    0.6566    0.4485    0.8150
 N    0.6585    0.4837    0.7950
 H    0.6386    0.4283    0.8113
 H    0.7127    0.0597    0.8191
 C    0.9066    0.1985    0.5649
 N    0.9085    0.2337    0.5450
 H    0.8886    0.1783    0.5613
 H    0.9627    0.3097    0.5691
 C    0.6566    0.0515    0.6850
 N    0.6585    0.0163    0.7050
 H    0.6386    0.0717    0.6887
 H    0.7127    0.4403    0.6809
 C    0.9066    0.3015    0.9350
 N    0.9085    0.2663    0.9550
 H    0.8886    0.3217    0.9387
 H    0.9627    0.1903    0.9309
Zn    0.7500    0.0000    0.8750
Zn    0.7500    0.0000    0.6250
Zn    0.8750    0.2500    0.0000
Zn    0.6250    0.2500    0.5000
Zn    0.5000    0.3750    0.7500
Zn    0.5000    0.1250    0.7500
Zn    0.0000    0.2500    0.8750
Zn    0.5000    0.2500    0.6250
Zn    0.7500    0.3750    0.5000
Zn    0.7500    0.1250    0.5000
Zn    0.8750    0.0000    0.7500
Zn    0.6250    0.0000    0.7500
 C    0.6886    0.0006    0.8114
 C    0.7021    0.0423    0.7979
 H    0.7208    0.0413    0.7792
 C    0.9386    0.2506    0.5614
 C    0.9521    0.2923    0.5479
 H    0.9708    0.2913    0.5292
 C    0.8114    0.4994    0.8114
 C    0.7979    0.4577    0.7979
 H    0.7792    0.4587    0.7792
 C    0.5614    0.2494    0.5614
 C    0.5479    0.2077    0.5479
 H    0.5292    0.2087    0.5292
 C    0.8114    0.0006    0.6886
 C    0.7979    0.0423    0.7021
 H    0.7792    0.0413    0.7208
 C    0.5614    0.2506    0.9386
 C    0.5479    0.2923    0.9521
 H    0.5292    0.2913    0.9708
 C    0.6886    0.4994    0.6886
 C    0.7021    0.4577    0.7021
 H    0.7208    0.4587    0.7208
 C    0.9386    0.2494    0.9386
 C    0.9521    0.2077    0.9521
 H    0.9708    0.2087    0.9708
 C    0.8114    0.1886    0.5006
 C    0.7979    0.2021    0.5423
 H    0.7792    0.2208    0.5413
 C    0.5614    0.4386    0.7506
 C    0.5479    0.4521    0.7923
 H    0.5292    0.4708    0.7913
 C    0.8114    0.3114    0.9994
 C    0.7979    0.2979    0.9577
 H    0.7792    0.2792    0.9587
 C    0.5614    0.0614    0.7494
 C    0.5479    0.0479    0.7077
 H    0.5292    0.0292    0.7087
 C    0.6886    0.3114    0.5006
 C    0.7021    0.2979    0.5423
 H    0.7208    0.2792    0.5413
 C    0.9386    0.0614    0.7506
 C    0.9521    0.0479    0.7923
 H    0.9708    0.0292    0.7913
 C    0.6886    0.1886    0.9994
 C    0.7021    0.2021    0.9577
 H    0.7208    0.2208    0.9587
 C    0.9386    0.4386    0.7494
 C    0.9521    0.4521    0.7077
 H    0.9708    0.4708    0.7087
 C    0.5006    0.3114    0.6886
 C    0.5423    0.2979    0.7021
 H    0.5413    0.2792    0.7208
 C    0.7506    0.0614    0.9386
 C    0.7923    0.0479    0.9521
 H    0.7913    0.0292    0.9708
 C    0.9994    0.3114    0.8114
 C    0.9577    0.2979    0.7979
 H    0.9587    0.2792    0.7792
 C    0.7494    0.0614    0.5614
 C    0.7077    0.0479    0.5479
 H    0.7087    0.0292    0.5292
 C    0.5006    0.1886    0.8114
 C    0.5423    0.2021    0.7979
 H    0.5413    0.2208    0.7792
 C    0.7506    0.4386    0.5614
 C    0.7923    0.4521    0.5479
 H    0.7913    0.4708    0.5292
 C    0.9994    0.1886    0.6886
 C    0.9577    0.2021    0.7021
 H    0.9587    0.2208    0.7208
 C    0.7494    0.4386    0.9386
 C    0.7077    0.4521    0.9521
 H    0.7087    0.4708    0.9708
 C    0.1850    0.4485    0.8434
 N    0.2050    0.4837    0.8415
 H    0.1887    0.4283    0.8614
 H    0.1809    0.0597    0.7873
 C    0.4350    0.1985    0.5934
 N    0.4550    0.2337    0.5915
 H    0.4387    0.1783    0.6114
 H    0.4309    0.3097    0.5373
 C    0.3150    0.0515    0.8434
 N    0.2950    0.0163    0.8415
 H    0.3113    0.0717    0.8614
 H    0.3191    0.4403    0.7873
 C    0.0649    0.3015    0.5934
 N    0.0450    0.2663    0.5915
 H    0.0613    0.3217    0.6114
 H    0.0691    0.1903    0.5373
 C    0.3150    0.4485    0.6566
 N    0.2950    0.4837    0.6585
 H    0.3113    0.4283    0.6386
 H    0.3191    0.0597    0.7127
 C    0.0649    0.1985    0.9066
 N    0.0450    0.2337    0.9085
 H    0.0613    0.1783    0.8886
 H    0.0691    0.3097    0.9627
 C    0.1850    0.0515    0.6566
 N    0.2050    0.0163    0.6585
 H    0.1887    0.0717    0.6386
 H    0.1809    0.4403    0.7127
 C    0.4350    0.3015    0.9066
 N    0.4550    0.2663    0.9085
 H    0.4387    0.3217    0.8886
 H    0.4309    0.1903    0.9627
 C    0.3434    0.1850    0.9485
 N    0.3415    0.2050    0.9837
 H    0.3614    0.1887    0.9283
 H    0.2873    0.1809    0.5597
 C    0.0934    0.4350    0.6985
 N    0.0915    0.4550    0.7337
 H    0.1114    0.4387    0.6783
 H    0.0374    0.4309    0.8097
 C    0.3434    0.3150    0.5515
 N    0.3415    0.2950    0.5163
 H    0.3614    0.3113    0.5717
 H    0.2873    0.3191    0.9403
 C    0.0934    0.0649    0.8015
 N    0.0915    0.0450    0.7663
 H    0.1114    0.0613    0.8217
 H    0.0374    0.0691    0.6903
 C    0.1566    0.3150    0.9485
 N    0.1585    0.2950    0.9837
 H    0.1386    0.3113    0.9283
 H    0.2127    0.3191    0.5597
 C    0.4066    0.0649    0.6985
 N    0.4085    0.0450    0.7337
 H    0.3886    0.0613    0.6783
 H    0.4627    0.0691    0.8097
 C    0.1566    0.1850    0.5515
 N    0.1585    0.2050    0.5163
 H    0.1386    0.1887    0.5717
 H    0.2127    0.1809    0.9403
 C    0.4066    0.4350    0.8015
 N    0.4085    0.4550    0.7663
 H    0.3886    0.4387    0.8217
 H    0.4627    0.4309    0.6903
 C    0.4485    0.3434    0.6850
 N    0.4837    0.3415    0.7050
 H    0.4283    0.3614    0.6887
 H    0.0597    0.2873    0.6809
 C    0.1985    0.0934    0.9350
 N    0.2337    0.0915    0.9550
 H    0.1783    0.1114    0.9387
 H    0.3097    0.0373    0.9309
 C    0.0515    0.3434    0.8150
 N    0.0163    0.3415    0.7950
 H    0.0717    0.3614    0.8113
 H    0.4403    0.2873    0.8191
 C    0.3015    0.0934    0.5649
 N    0.2663    0.0915    0.5450
 H    0.3217    0.1114    0.5613
 H    0.1903    0.0373    0.5691
 C    0.4485    0.1566    0.8150
 N    0.4837    0.1585    0.7950
 H    0.4283    0.1386    0.8113
 H    0.0597    0.2127    0.8191
 C    0.1985    0.4066    0.5649
 N    0.2337    0.4085    0.5450
 H    0.1783    0.3886    0.5613
 H    0.3097    0.4627    0.5691
 C    0.0515    0.1566    0.6850
 N    0.0163    0.1585    0.7050
 H    0.0717    0.1386    0.6887
 H    0.4403    0.2127    0.6809
 C    0.3015    0.4066    0.9350
 N    0.2663    0.4085    0.9550
 H    0.3217    0.3886    0.9387
 H    0.1903    0.4627    0.9309
 C    0.4485    0.1850    0.8434
 N    0.4837    0.2050    0.8415
 H    0.4283    0.1887    0.8614
 H    0.0597    0.1809    0.7873
 C    0.1985    0.4350    0.5934
 N    0.2337    0.4550    0.5915
 H    0.1783    0.4387    0.6114
 H    0.3097    0.4309    0.5373
 C    0.0515    0.3150    0.8434
 N    0.0163    0.2950    0.8415
 H    0.0717    0.3113    0.8614
 H    0.4403    0.3191    0.7873
 C    0.3015    0.0649    0.5934
 N    0.2663    0.0450    0.5915
 H    0.3217    0.0613    0.6114
 H    0.1903    0.0691    0.5373
 C    0.4485    0.3150    0.6566
 N    0.4837    0.2950    0.6585
 H    0.4283    0.3113    0.6386
 H    0.0597    0.3191    0.7127
 C    0.1985    0.0649    0.9066
 N    0.2337    0.0450    0.9085
 H    0.1783    0.0613    0.8886
 H    0.3097    0.0691    0.9627
 C    0.0515    0.1850    0.6566
 N    0.0163    0.2050    0.6585
 H    0.0717    0.1887    0.6386
 H    0.4403    0.1809    0.7127
 C    0.3015    0.4350    0.9066
 N    0.2663    0.4550    0.9085
 H    0.3217    0.4387    0.8886
 H    0.1903    0.4309    0.9627
 C    0.1850    0.3434    0.9485
 N    0.2050    0.3415    0.9837
 H    0.1887    0.3614    0.9283
 H    0.1809    0.2873    0.5597
 C    0.4350    0.0934    0.6985
 N    0.4550    0.0915    0.7337
 H    0.4387    0.1114    0.6783
 H    0.4309    0.0373    0.8097
 C    0.3150    0.3434    0.5515
 N    0.2950    0.3415    0.5163
 H    0.3113    0.3614    0.5717
 H    0.3191    0.2873    0.9403
 C    0.0650    0.0934    0.8015
 N    0.0450    0.0915    0.7663
 H    0.0613    0.1114    0.8217
 H    0.0691    0.0373    0.6903
 C    0.3150    0.1566    0.9485
 N    0.2950    0.1585    0.9837
 H    0.3113    0.1386    0.9283
 H    0.3191    0.2127    0.5597
 C    0.0649    0.4066    0.6985
 N    0.0450    0.4085    0.7337
 H    0.0613    0.3886    0.6783
 H    0.0691    0.4627    0.8097
 C    0.1850    0.1566    0.5515
 N    0.2050    0.1585    0.5163
 H    0.1887    0.1386    0.5717
 H    0.1809    0.2127    0.9403
 C    0.4350    0.4066    0.8015
 N    0.4550    0.4085    0.7663
 H    0.4387    0.3886    0.8217
 H    0.4309    0.4627    0.6903
 C    0.3434    0.4485    0.6850
 N    0.3415    0.4837    0.7050
 H    0.3614    0.4283    0.6887
 H    0.2873    0.0597    0.6809
 C    0.0934    0.1985    0.9350
 N    0.0915    0.2337    0.9550
 H    0.1114    0.1783    0.9387
 H    0.0374    0.3097    0.9309
 C    0.3434    0.0515    0.8150
 N    0.3415    0.0163    0.7950
 H    0.3614    0.0717    0.8113
 H    0.2873    0.4403    0.8191
 C    0.0934    0.3015    0.5649
 N    0.0915    0.2663    0.5450
 H    0.1114    0.3217    0.5613
 H    0.0374    0.1903    0.5691
 C    0.1566    0.4485    0.8150
 N    0.1585    0.4837    0.7950
 H    0.1386    0.4283    0.8113
 H    0.2127    0.0597    0.8191
 C    0.4066    0.1985    0.5649
 N    0.4085    0.2337    0.5450
 H    0.3886    0.1783    0.5613
 H    0.4627    0.3097    0.5691
 C    0.1566    0.0515    0.6850
 N    0.1585    0.0163    0.7050
 H    0.1386    0.0717    0.6887
 H    0.2127    0.4403    0.6809
 C    0.4066    0.3015    0.9350
 N    0.4085    0.2663    0.9550
 H    0.3886    0.3217    0.9387
 H    0.4627    0.1903    0.9309
Zn    0.2500    0.0000    0.8750
Zn    0.2500    0.0000    0.6250
Zn    0.3750    0.2500    0.0000
Zn    0.1250    0.2500    0.5000
Zn    0.0000    0.3750    0.7500
Zn    0.0000    0.1250    0.7500
Zn    0.5000    0.2500    0.8750
Zn    0.0000    0.2500    0.6250
Zn    0.2500    0.3750    0.5000
Zn    0.2500    0.1250    0.5000
Zn    0.3750    0.0000    0.7500
Zn    0.1250    0.0000    0.7500
 C    0.1886    0.0006    0.8114
 C    0.2021    0.0423    0.7979
 H    0.2208    0.0413    0.7792
 C    0.4386    0.2506    0.5614
 C    0.4521    0.2923    0.5479
 H    0.4708    0.2913    0.5292
 C    0.3114    0.4994    0.8114
 C    0.2979    0.4577    0.7979
 H    0.2792    0.4587    0.7792
 C    0.0614    0.2494    0.5614
 C    0.0479    0.2077    0.5479
 H    0.0292    0.2087    0.5292
 C    0.3114    0.0006    0.6886
 C    0.2979    0.0423    0.7021
 H    0.2792    0.0413    0.7208
 C    0.0614    0.2506    0.9386
 C    0.0479    0.2923    0.9521
 H    0.0292    0.2913    0.9708
 C    0.1886    0.4994    0.6886
 C    0.2021    0.4577    0.7021
 H    0.2208    0.4587    0.7208
 C    0.4386    0.2494    0.9386
 C    0.4521    0.2077    0.9521
 H    0.4708    0.2087    0.9708
 C    0.3114    0.1886    0.5006
 C    0.2979    0.2021    0.5423
 H    0.2792    0.2208    0.5413
 C    0.0614    0.4386    0.7506
 C    0.0479    0.4521    0.7923
 H    0.0292    0.4708    0.7913
 C    0.3114    0.3114    0.9994
 C    0.2979    0.2979    0.9577
 H    0.2792    0.2792    0.9587
 C    0.0614    0.0614    0.7494
 C    0.0479    0.0479    0.7077
 H    0.0292    0.0292    0.7087
 C    0.1886    0.3114    0.5006
 C    0.2021    0.2979    0.5423
 H    0.2208    0.2792    0.5413
 C    0.4386    0.0614    0.7506
 C    0.4521    0.0479    0.7923
 H    0.4708    0.0292    0.7913
 C    0.1886    0.1886    0.9994
 C    0.2021    0.2021    0.9577
 H    0.2208    0.2208    0.9587
 C    0.4386    0.4386    0.7494
 C    0.4521    0.4521    0.7077
 H    0.4708    0.4708    0.7087
 C    0.0006    0.3114    0.6886
 C    0.0423    0.2979    0.7021
 H    0.0413    0.2792    0.7208
 C    0.2506    0.0614    0.9386
 C    0.2923    0.0479    0.9521
 H    0.2913    0.0292    0.9708
 C    0.4994    0.3114    0.8114
 C    0.4577    0.2979    0.7979
 H    0.4587    0.2792    0.7792
 C    0.2494    0.0614    0.5614
 C    0.2077    0.0479    0.5479
 H    0.2087    0.0292    0.5292
 C    0.0006    0.1886    0.8114
 C    0.0423    0.2021    0.7979
 H    0.0413    0.2208    0.7792
 C    0.2506    0.4386    0.5614
 C    0.2923    0.4521    0.5479
 H    0.2913    0.4708    0.5292
 C    0.4994    0.1886    0.6886
 C    0.4577    0.2021    0.7021
 H    0.4587    0.2208    0.7208
 C    0.2494    0.4386    0.9386
 C    0.2077    0.4521    0.9521
 H    0.2087    0.4708    0.9708
 C    0.6850    0.9485    0.3434
 N    0.7050    0.9837    0.3415
 H    0.6887    0.9283    0.3614
 H    0.6809    0.5597    0.2873
 C    0.9350    0.6985    0.0934
 N    0.9550    0.7337    0.0915
 H    0.9387    0.6783    0.1114
 H    0.9309    0.8097    0.0373
 C    0.8150    0.5515    0.3434
 N    0.7950    0.5163    0.3415
 H    0.8113    0.5717    0.3614
 H    0.8191    0.9403    0.2873
 C    0.5649    0.8015    0.0934
 N    0.5450    0.7663    0.0915
 H    0.5613    0.8217    0.1114
 H    0.5691    0.6903    0.0373
 C    0.8150    0.9485    0.1566
 N    0.7950    0.9837    0.1585
 H    0.8113    0.9283    0.1386
 H    0.8191    0.5597    0.2127
 C    0.5649    0.6985    0.4066
 N    0.5450    0.7337    0.4085
 H    0.5613    0.6783    0.3886
 H    0.5691    0.8097    0.4627
 C    0.6850    0.5515    0.1566
 N    0.7050    0.5163    0.1585
 H    0.6887    0.5717    0.1386
 H    0.6809    0.9403    0.2127
 C    0.9350    0.8015    0.4066
 N    0.9550    0.7663    0.4085
 H    0.9387    0.8217    0.3886
 H    0.9309    0.6903    0.4626
 C    0.8434    0.6850    0.4485
 N    0.8415    0.7050    0.4837
 H    0.8614    0.6887    0.4283
 H    0.7873    0.6809    0.0597
 C    0.5934    0.9350    0.1985
 N    0.5915    0.9550    0.2337
 H    0.6114    0.9387    0.1783
 H    0.5373    0.9309    0.3097
 C    0.8434    0.8150    0.0515
 N    0.8415    0.7950    0.0163
 H    0.8614    0.8113    0.0717
 H    0.7873    0.8191    0.4403
 C    0.5934    0.5649    0.3015
 N    0.5915    0.5450    0.2663
 H    0.6114    0.5613    0.3217
 H    0.5373    0.5691    0.1903
 C    0.6566    0.8150    0.4485
 N    0.6585    0.7950    0.4837
 H    0.6386    0.8113    0.4283
 H    0.7127    0.8191    0.0597
 C    0.9066    0.5649    0.1985
 N    0.9085    0.5450    0.2337
 H    0.8886    0.5613    0.1783
 H    0.9627    0.5691    0.3097
 C    0.6566    0.6850    0.0515
 N    0.6585    0.7050    0.0163
 H    0.6386    0.6887    0.0717
 H    0.7127    0.6809    0.4403
 C    0.9066    0.9350    0.3015
 N    0.9085    0.9550    0.2663
 H    0.8886    0.9387    0.3217
 H    0.9627    0.9309    0.1903
 C    0.9485    0.8434    0.1850
 N    0.9837    0.8415    0.2050
 H    0.9283    0.8614    0.1887
 H    0.5597    0.7873    0.1809
 C    0.6985    0.5934    0.4350
 N    0.7337    0.5915    0.4550
 H    0.6783    0.6114    0.4387
 H    0.8097    0.5373    0.4309
 C    0.5515    0.8434    0.3150
 N    0.5163    0.8415    0.2950
 H    0.5717    0.8614    0.3113
 H    0.9403    0.7873    0.3191
 C    0.8015    0.5934    0.0649
 N    0.7663    0.5915    0.0450
 H    0.8217    0.6114    0.0613
 H    0.6903    0.5373    0.0691
 C    0.9485    0.6566    0.3150
 N    0.9837    0.6585    0.2950
 H    0.9283    0.6386    0.3113
 H    0.5597    0.7127    0.3191
 C    0.6985    0.9066    0.0649
 N    0.7337    0.9085    0.0450
 H    0.6783    0.8886    0.0613
 H    0.8097    0.9627    0.0691
 C    0.5515    0.6566    0.1850
 N    0.5163    0.6585    0.2050
 H    0.5717    0.6386    0.1887
 H    0.9403    0.7127    0.1809
 C    0.8015    0.9066    0.4350
 N    0.7663    0.9085    0.4550
 H    0.8217    0.8886    0.4387
 H    0.6903    0.9627    0.4309
 C    0.9485    0.6850    0.3434
 N    0.9837    0.7050    0.3415
 H    0.9283    0.6887    0.3614
 H    0.5597    0.6809    0.2873
 C    0.6985    0.9350    0.0934
 N    0.7337    0.9550    0.0915
 H    0.6783    0.9387    0.1114
 H    0.8097    0.9309    0.0373
 C    0.5515    0.8150    0.3434
 N    0.5163    0.7950    0.3415
 H    0.5717    0.8113    0.3614
 H    0.9403    0.8191    0.2873
 C    0.8015    0.5649    0.0934
 N    0.7663    0.5450    0.0915
 H    0.8217    0.5613    0.1114
 H    0.6903    0.5691    0.0373
 C    0.9485    0.8150    0.1566
 N    0.9837    0.7950    0.1585
 H    0.9283    0.8113    0.1386
 H    0.5597    0.8191    0.2127
 C    0.6985    0.5649    0.4066
 N    0.7337    0.5450    0.4085
 H    0.6783    0.5613    0.3886
 H    0.8097    0.5691    0.4627
 C    0.5515    0.6850    0.1566
 N    0.5163    0.7050    0.1585
 H    0.5717    0.6887    0.1386
 H    0.9403    0.6809    0.2127
 C    0.8015    0.9350    0.4066
 N    0.7663    0.9550    0.4085
 H    0.8217    0.9387    0.3886
 H    0.6903    0.9309    0.4627
 C    0.6850    0.8434    0.4485
 N    0.7050    0.8415    0.4837
 H    0.6887    0.8614    0.4283
 H    0.6809    0.7873    0.0597
 C    0.9350    0.5934    0.1985
 N    0.9550    0.5915    0.2337
 H    0.9387    0.6114    0.1783
 H    0.9309    0.5373    0.3097
 C    0.8150    0.8434    0.0515
 N    0.7950    0.8415    0.0163
 H    0.8113    0.8614    0.0717
 H    0.8191    0.7873    0.4403
 C    0.5649    0.5934    0.3015
 N    0.5450    0.5915    0.2663
 H    0.5613    0.6114    0.3217
 H    0.5691    0.5373    0.1903
 C    0.8150    0.6566    0.4485
 N    0.7950    0.6585    0.4837
 H    0.8113    0.6386    0.4283
 H    0.8191    0.7127    0.0597
 C    0.5649    0.9066    0.1985
 N    0.5450    0.9085    0.2337
 H    0.5613    0.8886    0.1783
 H    0.5691    0.9627    0.3097
 C    0.6850    0.6566    0.0515
 N    0.7050    0.6585    0.0163
 H    0.6887    0.6386    0.0717
 H    0.6809    0.7127    0.4403
 C    0.9350    0.9066    0.3015
 N    0.9550    0.9085    0.2663
 H    0.9387    0.8886    0.3217
 H    0.9309    0.9627    0.1903
 C    0.8434    0.9485    0.1850
 N    0.8415    0.9837    0.2050
 H    0.8614    0.9283    0.1887
 H    0.7873    0.5597    0.1809
 C    0.5934    0.6985    0.4350
 N    0.5915    0.7337    0.4550
 H    0.6114    0.6783    0.4387
 H    0.5373    0.8097    0.4309
 C    0.8434    0.5515    0.3150
 N    0.8415    0.5163    0.2950
 H    0.8614    0.5717    0.3113
 H    0.7873    0.9403    0.3191
 C    0.5934    0.8015    0.0649
 N    0.5915    0.7663    0.0450
 H    0.6114    0.8217    0.0613
 H    0.5373    0.6903    0.0691
 C    0.6566    0.9485    0.3150
 N    0.6585    0.9837    0.2950
 H    0.6386    0.9283    0.3113
 H    0.7127    0.5597    0.3191
 C    0.9066    0.6985    0.0649
 N    0.9085    0.7337    0.0450
 H    0.8886    0.6783    0.0613
 H    0.9627    0.8097    0.0691
 C    0.6566    0.5515    0.1850
 N    0.6585    0.5163    0.2050
 H    0.6386    0.5717    0.1887
 H    0.7127    0.9403    0.1809
 C    0.9066    0.8015    0.4350
 N    0.9085    0.7663    0.4550
 H    0.8886    0.8217    0.4387
 H    0.9627    0.6903    0.4309
Zn    0.7500    0.5000    0.3750
Zn    0.7500    0.5000    0.1250
Zn    0.8750    0.7500    0.5000
Zn    0.6250    0.7500    0.0000
Zn    0.5000    0.8750    0.2500
Zn    0.5000    0.6250    0.2500
Zn    0.0000    0.7500    0.3750
Zn    0.5000    0.7500    0.1250
Zn    0.7500    0.8750    0.0000
Zn    0.7500    0.6250    0.0000
Zn    0.8750    0.5000    0.2500
Zn    0.6250    0.5000    0.2500
 C    0.6886    0.5006    0.3114
 C    0.7021    0.5423    0.2979
 H    0.7208    0.5413    0.2792
 C    0.9386    0.7506    0.0614
 C    0.9521    0.7923    0.0479
 H    0.9708    0.7913    0.0292
 C    0.8114    0.9994    0.3114
 C    0.7979    0.9577    0.2979
 H    0.7792    0.9587    0.2792
 C    0.5614    0.7494    0.0614
 C    0.5479    0.7077    0.0479
 H    0.5292    0.7087    0.0292
 C    0.8114    0.5006    0.1886
 C    0.7979    0.5423    0.2021
 H    0.7792    0.5413    0.2208
 C    0.5614    0.7506    0.4386
 C    0.5479    0.7923    0.4521
 H    0.5292    0.7913    0.4708
 C    0.6886    0.9994    0.1886
 C    0.7021    0.9577    0.2021
 H    0.7208    0.9587    0.2208
 C    0.9386    0.7494    0.4386
 C    0.9521    0.7077    0.4521
 H    0.9708    0.7087    0.4708
 C    0.8114    0.6886    0.0006
 C    0.7979    0.7021    0.0423
 H    0.7792    0.7208    0.0413
 C    0.5614    0.9386    0.2506
 C    0.5479    0.9521    0.2923
 H    0.5292    0.9708    0.2913
 C    0.8114    0.8114    0.4994
 C    0.7979    0.7979    0.4577
 H    0.7792    0.7792    0.4587
 C    0.5614    0.5614    0.2494
 C    0.5479    0.5479    0.2077
 H    0.5292    0.5292    0.2087
 C    0.6886    0.8114    0.0006
 C    0.7021    0.7979    0.0423
 H    0.7208    0.7792    0.0413
 C    0.9386    0.5614    0.2506
 C    0.9521    0.5479    0.2923
 H    0.9708    0.5292    0.2913
 C    0.6886    0.6886    0.4994
 C    0.7021    0.7021    0.4577
 H    0.7208    0.7208    0.4587
 C    0.9386    0.9386    0.2494
 C    0.9521    0.9521    0.2077
 H    0.9708    0.9708    0.2087
 C    0.5006    0.8114    0.1886
 C    0.5423    0.7979    0.2021
 H    0.5413    0.7792    0.2208
 C    0.7506    0.5614    0.4386
 C    0.7923    0.5479    0.4521
 H    0.7913    0.5292    0.4708
 C    0.9994    0.8114    0.3114
 C    0.9577    0.7979    0.2979
 H    0.9587    0.7792    0.2792
 C    0.7494    0.5614    0.0614
 C    0.7077    0.5479    0.0479
 H    0.7087    0.5292    0.0292
 C    0.5006    0.6886    0.3114
 C    0.5423    0.7021    0.2979
 H    0.5413    0.7208    0.2792
 C    0.7506    0.9386    0.0614
 C    0.7923    0.9521    0.0479
 H    0.7913    0.9708    0.0292
 C    0.9994    0.6886    0.1886
 C    0.9577    0.7021    0.2021
 H    0.9587    0.7208    0.2208
 C    0.7494    0.9386    0.4386
 C    0.7077    0.9521    0.4521
 H    0.7087    0.9708    0.4708
 C    0.1850    0.9485    0.3434
 N    0.2050    0.9837    0.3415
 H    0.1887    0.9283    0.3614
 H    0.1809    0.5597    0.2873
 C    0.4350    0.6985    0.0934
 N    0.4550    0.7337    0.0915
 H    0.4387    0.6783    0.1114
 H    0.4309    0.8097    0.0373
 C    0.3150    0.5515    0.3434
 N    0.2950    0.5163    0.3415
 H    0.3113    0.5717    0.3614
 H    0.3191    0.9403    0.2873
 C    0.0650    0.8015    0.0934
 N    0.0450    0.7663    0.0915
 H    0.0613    0.8217    0.1114
 H    0.0691    0.6903    0.0373
 C    0.3150    0.9485    0.1566
 N    0.2950    0.9837    0.1585
 H    0.3113    0.9283    0.1386
 H    0.3191    0.5597    0.2127
 C    0.0649    0.6985    0.4066
 N    0.0450    0.7337    0.4085
 H    0.0613    0.6783    0.3886
 H    0.0691    0.8097    0.4627
 C    0.1850    0.5515    0.1566
 N    0.2050    0.5163    0.1585
 H    0.1887    0.5717    0.1386
 H    0.1809    0.9403    0.2127
 C    0.4350    0.8015    0.4066
 N    0.4550    0.7663    0.4085
 H    0.4387    0.8217    0.3886
 H    0.4309    0.6903    0.4626
 C    0.3434    0.6850    0.4485
 N    0.3415    0.7050    0.4837
 H    0.3614    0.6887    0.4283
 H    0.2873    0.6809    0.0597
 C    0.0934    0.9350    0.1985
 N    0.0915    0.9550    0.2337
 H    0.1114    0.9387    0.1783
 H    0.0374    0.9309    0.3097
 C    0.3434    0.8150    0.0515
 N    0.3415    0.7950    0.0163
 H    0.3614    0.8113    0.0717
 H    0.2873    0.8191    0.4403
 C    0.0934    0.5649    0.3015
 N    0.0915    0.5450    0.2663
 H    0.1114    0.5613    0.3217
 H    0.0374    0.5691    0.1903
 C    0.1566    0.8150    0.4485
 N    0.1585    0.7950    0.4837
 H    0.1386    0.8113    0.4283
 H    0.2127    0.8191    0.0597
 C    0.4066    0.5649    0.1985
 N    0.4085    0.5450    0.2337
 H    0.3886    0.5613    0.1783
 H    0.4627    0.5691    0.3097
 C    0.1566    0.6850    0.0515
 N    0.1585    0.7050    0.0163
 H    0.1386    0.6887    0.0717
 H    0.2127    0.6809    0.4403
 C    0.4066    0.9350    0.3015
 N    0.4085    0.9550    0.2663
 H    0.3886    0.9387    0.3217
 H    0.4627    0.9309    0.1903
 C    0.4485    0.8434    0.1850
 N    0.4837    0.8415    0.2050
 H    0.4283    0.8614    0.1887
 H    0.0597    0.7873    0.1809
 C    0.1985    0.5934    0.4350
 N    0.2337    0.5915    0.4550
 H    0.1783    0.6114    0.4387
 H    0.3097    0.5373    0.4309
 C    0.0515    0.8434    0.3150
 N    0.0163    0.8415    0.2950
 H    0.0717    0.8614    0.3113
 H    0.4403    0.7873    0.3191
 C    0.3015    0.5934    0.0649
 N    0.2663    0.5915    0.0450
 H    0.3217    0.6114    0.0613
 H    0.1903    0.5373    0.0691
 C    0.4485    0.6566    0.3150
 N    0.4837    0.6585    0.2950
 H    0.4283    0.6386    0.3113
 H    0.0597    0.7127    0.3191
 C    0.1985    0.9066    0.0649
 N    0.2337    0.9085    0.0450
 H    0.1783    0.8886    0.0613
 H    0.3097    0.9627    0.0691
 C    0.0515    0.6566    0.1850
 N    0.0163    0.6585    0.2050
 H    0.0717    0.6386    0.1887
 H    0.4403    0.7127    0.1809
 C    0.3015    0.9066    0.4350
 N    0.2663    0.9085    0.4550
 H    0.3217    0.8886    0.4387
 H    0.1903    0.9627    0.4309
 C    0.4485    0.6850    0.3434
 N    0.4837    0.7050    0.3415
 H    0.4283    0.6887    0.3614
 H    0.0597    0.6809    0.2873
 C    0.1985    0.9350    0.0934
 N    0.2337    0.9550    0.0915
 H    0.1783    0.9387    0.1114
 H    0.3097    0.9309    0.0373
 C    0.0515    0.8150    0.3434
 N    0.0163    0.7950    0.3415
 H    0.0717    0.8113    0.3614
 H    0.4403    0.8191    0.2873
 C    0.3015    0.5649    0.0934
 N    0.2663    0.5450    0.0915
 H    0.3217    0.5613    0.1114
 H    0.1903    0.5691    0.0373
 C    0.4485    0.8150    0.1566
 N    0.4837    0.7950    0.1585
 H    0.4283    0.8113    0.1386
 H    0.0597    0.8191    0.2127
 C    0.1985    0.5649    0.4066
 N    0.2337    0.5450    0.4085
 H    0.1783    0.5613    0.3886
 H    0.3097    0.5691    0.4627
 C    0.0515    0.6850    0.1566
 N    0.0163    0.7050    0.1585
 H    0.0717    0.6887    0.1386
 H    0.4403    0.6809    0.2127
 C    0.3015    0.9350    0.4066
 N    0.2663    0.9550    0.4085
 H    0.3217    0.9387    0.3886
 H    0.1903    0.9309    0.4627
 C    0.1850    0.8434    0.4485
 N    0.2050    0.8415    0.4837
 H    0.1887    0.8614    0.4283
 H    0.1809    0.7873    0.0597
 C    0.4350    0.5934    0.1985
 N    0.4550    0.5915    0.2337
 H    0.4387    0.6114    0.1783
 H    0.4309    0.5373    0.3097
 C    0.3150    0.8434    0.0515
 N    0.2950    0.8415    0.0163
 H    0.3113    0.8614    0.0717
 H    0.3191    0.7873    0.4403
 C    0.0649    0.5934    0.3015
 N    0.0450    0.5915    0.2663
 H    0.0613    0.6114    0.3217
 H    0.0691    0.5373    0.1903
 C    0.3150    0.6566    0.4485
 N    0.2950    0.6585    0.4837
 H    0.3113    0.6386    0.4283
 H    0.3191    0.7127    0.0597
 C    0.0650    0.9066    0.1985
 N    0.0450    0.9085    0.2337
 H    0.0613    0.8886    0.1783
 H    0.0691    0.9627    0.3097
 C    0.1850    0.6566    0.0515
 N    0.2050    0.6585    0.0163
 H    0.1887    0.6386    0.0717
 H    0.1809    0.7127    0.4403
 C    0.4350    0.9066    0.3015
 N    0.4550    0.9085    0.2663
 H    0.4387    0.8886    0.3217
 H    0.4309    0.9627    0.1903
 C    0.3434    0.9485    0.1850
 N    0.3415    0.9837    0.2050
 H    0.3614    0.9283    0.1887
 H    0.2873    0.5597    0.1809
 C    0.0934    0.6985    0.4350
 N    0.0915    0.7337    0.4550
 H    0.1114    0.6783    0.4387
 H    0.0374    0.8097    0.4309
 C    0.3434    0.5515    0.3150
 N    0.3415    0.5163    0.2950
 H    0.3614    0.5717    0.3113
 H    0.2873    0.9403    0.3191
 C    0.0934    0.8015    0.0649
 N    0.0915    0.7663    0.0450
 H    0.1114    0.8217    0.0613
 H    0.0374    0.6903    0.0691
 C    0.1566    0.9485    0.3150
 N    0.1585    0.9837    0.2950
 H    0.1386    0.9283    0.3113
 H    0.2127    0.5597    0.3191
 C    0.4066    0.6985    0.0649
 N    0.4085    0.7337    0.0450
 H    0.3886    0.6783    0.0613
 H    0.4627    0.8097    0.0691
 C    0.1566    0.5515    0.1850
 N    0.1585    0.5163    0.2050
 H    0.1386    0.5717    0.1887
 H    0.2127    0.9403    0.1809
 C    0.4066    0.8015    0.4350
 N    0.4085    0.7663    0.4550
 H    0.3886    0.8217    0.4387
 H    0.4627    0.6903    0.4309
Zn    0.2500    0.5000    0.3750
Zn    0.2500    0.5000    0.1250
Zn    0.3750    0.7500    0.5000
Zn    0.1250    0.7500    0.0000
Zn    0.0000    0.8750    0.2500
Zn    0.0000    0.6250    0.2500
Zn    0.5000    0.7500    0.3750
Zn    0.0000    0.7500    0.1250
Zn    0.2500    0.8750    0.0000
Zn    0.2500    0.6250    0.0000
Zn    0.3750    0.5000    0.2500
Zn    0.1250    0.5000    0.2500
 C    0.1886    0.5006    0.3114
 C    0.2021    0.5423    0.2979
 H    0.2208    0.5413    0.2792
 C    0.4386    0.7506    0.0614
 C    0.4521    0.7923    0.0479
 H    0.4708    0.7913    0.0292
 C    0.3114    0.9994    0.3114
 C    0.2979    0.9577    0.2979
 H    0.2792    0.9587    0.2792
 C    0.0614    0.7494    0.0614
 C    0.0479    0.7077    0.0479
 H    0.0292    0.7087    0.0292
 C    0.3114    0.5006    0.1886
 C    0.2979    0.5423    0.2021
 H    0.2792    0.5413    0.2208
 C    0.0614    0.7506    0.4386
 C    0.0479    0.7923    0.4521
 H    0.0292    0.7913    0.4708
 C    0.1886    0.9994    0.1886
 C    0.2021    0.9577    0.2021
 H    0.2208    0.9587    0.2208
 C    0.4386    0.7494    0.4386
 C    0.4521    0.7077    0.4521
 H    0.4708    0.7087    0.4708
 C    0.3114    0.6886    0.0006
 C    0.2979    0.7021    0.0423
 H    0.2792    0.7208    0.0413
 C    0.0614    0.9386    0.2506
 C    0.0479    0.9521    0.2923
 H    0.0292    0.9708    0.2913
 C    0.3114    0.8114    0.4994
 C    0.2979    0.7979    0.4577
 H    0.2792    0.7792    0.4587
 C    0.0614    0.5614    0.2494
 C    0.0479    0.5479    0.2077
 H    0.0292    0.5292    0.2087
 C    0.1886    0.8114    0.0006
 C    0.2021    0.7979    0.0423
 H    0.2208    0.7792    0.0413
 C    0.4386    0.5614    0.2506
 C    0.4521    0.5479    0.2923
 H    0.4708    0.5292    0.2913
 C    0.1886    0.6886    0.4994
 C    0.2021    0.7021    0.4577
 H    0.2208    0.7208    0.4587
 C    0.4386    0.9386    0.2494
 C    0.4521    0.9521    0.2077
 H    0.4708    0.9708    0.2087
 C    0.0006    0.8114    0.1886
 C    0.0423    0.7979    0.2021
 H    0.0413    0.7792    0.2208
 C    0.2506    0.5614    0.4386
 C    0.2923    0.5479    0.4521
 H    0.2913    0.5292    0.4708
 C    0.4994    0.8114    0.3114
 C    0.4577    0.7979    0.2979
 H    0.4587    0.7792    0.2792
 C    0.2494    0.5614    0.0614
 C    0.2077    0.5479    0.0479
 H    0.2087    0.5292    0.0292
 C    0.0006    0.6886    0.3114
 C    0.0423    0.7021    0.2979
 H    0.0413    0.7208    0.2792
 C    0.2506    0.9386    0.0614
 C    0.2923    0.9521    0.0479
 H    0.2913    0.9708    0.0292
 C    0.4994    0.6886    0.1886
 C    0.4577    0.7021    0.2021
 H    0.4587    0.7208    0.2208
 C    0.2494    0.9386    0.4386
 C    0.2077    0.9521    0.4521
 H    0.2087    0.9708    0.4708
 C    0.6850    0.4485    0.3434
 N    0.7050    0.4837    0.3415
 H    0.6887    0.4283    0.3614
 H    0.6809    0.0597    0.2873
 C    0.9350    0.1985    0.0934
 N    0.9550    0.2337    0.0915
 H    0.9387    0.1783    0.1114
 H    0.9309    0.3097    0.0373
 C    0.8150    0.0515    0.3434
 N    0.7950    0.0163    0.3415
 H    0.8113    0.0717    0.3614
 H    0.8191    0.4403    0.2873
 C    0.5649    0.3015    0.0934
 N    0.5450    0.2663    0.0915
 H    0.5613    0.3217    0.1114
 H    0.5691    0.1903    0.0373
 C    0.8150    0.4485    0.1566
 N    0.7950    0.4837    0.1585
 H    0.8113    0.4283    0.1386
 H    0.8191    0.0597    0.2127
 C    0.5649    0.1985    0.4066
 N    0.5450    0.2337    0.4085
 H    0.5613    0.1783    0.3886
 H    0.5691    0.3097    0.4627
 C    0.6850    0.0515    0.1566
 N    0.7050    0.0163    0.1585
 H    0.6887    0.0717    0.1386
 H    0.6809    0.4403    0.2127
 C    0.9350    0.3015    0.4066
 N    0.9550    0.2663    0.4085
 H    0.9387    0.3217    0.3886
 H    0.9309    0.1903    0.4626
 C    0.8434    0.1850    0.4485
 N    0.8415    0.2050    0.4837
 H    0.8614    0.1887    0.4283
 H    0.7873    0.1809    0.0597
 C    0.5934    0.4350    0.1985
 N    0.5915    0.4550    0.2337
 H    0.6114    0.4387    0.1783
 H    0.5373    0.4309    0.3097
 C    0.8434    0.3150    0.0515
 N    0.8415    0.2950    0.0163
 H    0.8614    0.3113    0.0717
 H    0.7873    0.3191    0.4403
 C    0.5934    0.0649    0.3015
 N    0.5915    0.0450    0.2663
 H    0.6114    0.0613    0.3217
 H    0.5373    0.0691    0.1903
 C    0.6566    0.3150    0.4485
 N    0.6585    0.2950    0.4837
 H    0.6386    0.3113    0.4283
 H    0.7127    0.3191    0.0597
 C    0.9066    0.0649    0.1985
 N    0.9085    0.0450    0.2337
 H    0.8886    0.0613    0.1783
 H    0.9627    0.0691    0.3097
 C    0.6566    0.1850    0.0515
 N    0.6585    0.2050    0.0163
 H    0.6386    0.1887    0.0717
 H    0.7127    0.1809    0.4403
 C    0.9066    0.4350    0.3015
 N    0.9085    0.4550    0.2663
 H    0.8886    0.4387    0.3217
 H    0.9627    0.4309    0.1903
 C    0.9485    0.3434    0.1850
 N    0.9837    0.3415    0.2050
 H    0.9283    0.3614    0.1887
 H    0.5597    0.2873    0.1809
 C    0.6985    0.0934    0.4350
 N    0.7337    0.0915    0.4550
 H    0.6783    0.1114    0.4387
 H    0.8097    0.0373    0.4309
 C    0.5515    0.3434    0.3150
 N    0.5163    0.3415    0.2950
 H    0.5717    0.3614    0.3113
 H    0.9403    0.2873    0.3191
 C    0.8015    0.0934    0.0649
 N    0.7663    0.0915    0.0450
 H    0.8217    0.1114    0.0613
 H    0.6903    0.0373    0.0691
 C    0.9485    0.1566    0.3150
 N    0.9837    0.1585    0.2950
 H    0.9283    0.1386    0.3113
 H    0.5597    0.2127    0.3191
 C    0.6985    0.4066    0.0649
 N    0.7337    0.4085    0.0450
 H    0.6783    0.3886    0.0613
 H    0.8097    0.4627    0.0691
 C    0.5515    0.1566    0.1850
 N    0.5163    0.1585    0.2050
 H    0.5717    0.1386    0.1887
 H    0.9403    0.2127    0.1809
 C    0.8015    0.4066    0.4350
 N    0.7663    0.4085    0.4550
 H    0.8217    0.3886    0.4387
 H    0.6903    0.4627    0.4309
 C    0.9485    0.1850    0.3434
 N    0.9837    0.2050    0.3415
 H    0.9283    0.1887    0.3614
 H    0.5597    0.1809    0.2873
 C    0.6985    0.4350    0.0934
 N    0.7337    0.4550    0.0915
 H    0.6783    0.4387    0.1114
 H    0.8097    0.4309    0.0373
 C    0.5515    0.3150    0.3434
 N    0.5163    0.2950    0.3415
 H    0.5717    0.3113    0.3614
 H    0.9403    0.3191    0.2873
 C    0.8015    0.0649    0.0934
 N    0.7663    0.0450    0.0915
 H    0.8217    0.0613    0.1114
 H    0.6903    0.0691    0.0373
 C    0.9485    0.3150    0.1566
 N    0.9837    0.2950    0.1585
 H    0.9283    0.3113    0.1386
 H    0.5597    0.3191    0.2127
 C    0.6985    0.0649    0.4066
 N    0.7337    0.0450    0.4085
 H    0.6783    0.0613    0.3886
 H    0.8097    0.0691    0.4627
 C    0.5515    0.1850    0.1566
 N    0.5163    0.2050    0.1585
 H    0.5717    0.1887    0.1386
 H    0.9403    0.1809    0.2127
 C    0.8015    0.4350    0.4066
 N    0.7663    0.4550    0.4085
 H    0.8217    0.4387    0.3886
 H    0.6903    0.4309    0.4627
 C    0.6850    0.3434    0.4485
 N    0.7050    0.3415    0.4837
 H    0.6887    0.3614    0.4283
 H    0.6809    0.2873    0.0597
 C    0.9350    0.0934    0.1985
 N    0.9550    0.0915    0.2337
 H    0.9387    0.1114    0.1783
 H    0.9309    0.0373    0.3097
 C    0.8150    0.3434    0.0515
 N    0.7950    0.3415    0.0163
 H    0.8113    0.3614    0.0717
 H    0.8191    0.2873    0.4403
 C    0.5649    0.0934    0.3015
 N    0.5450    0.0915    0.2663
 H    0.5613    0.1114    0.3217
 H    0.5691    0.0373    0.1903
 C    0.8150    0.1566    0.4485
 N    0.7950    0.1585    0.4837
 H    0.8113    0.1386    0.4283
 H    0.8191    0.2127    0.0597
 C    0.5649    0.4066    0.1985
 N    0.5450    0.4085    0.2337
 H    0.5613    0.3886    0.1783
 H    0.5691    0.4627    0.3097
 C    0.6850    0.1566    0.0515
 N    0.7050    0.1585    0.0163
 H    0.6887    0.1386    0.0717
 H    0.6809    0.2127    0.4403
 C    0.9350    0.4066    0.3015
 N    0.9550    0.4085    0.2663
 H    0.9387    0.3886    0.3217
 H    0.9309    0.4627    0.1903
 C    0.8434    0.4485    0.1850
 N    0.8415    0.4837    0.2050
 H    0.8614    0.4283    0.1887
 H    0.7873    0.0597    0.1809
 C    0.5934    0.1985    0.4350
 N    0.5915    0.2337    0.4550
 H    0.6114    0.1783    0.4387
 H    0.5373    0.3097    0.4309
 C    0.8434    0.0515    0.3150
 N    0.8415    0.0163    0.2950
 H    0.8614    0.0717    0.3113
 H    0.7873    0.4403    0.3191
 C    0.5934    0.3015    0.0649
 N    0.5915    0.2663    0.0450
 H    0.6114    0.3217    0.0613
 H    0.5373    0.1903    0.0691
 C    0.6566    0.4485    0.3150
 N    0.6585    0.4837    0.2950
 H    0.6386    0.4283    0.3113
 H    0.7127    0.0597    0.3191
 C    0.9066    0.1985    0.0649
 N    0.9085    0.2337    0.0450
 H    0.8886    0.1783    0.0613
 H    0.9627    0.3097    0.0691
 C    0.6566    0.0515    0.1850
 N    0.6585    0.0163    0.2050
 H    0.6386    0.0717    0.1887
 H    0.7127    0.4403    0.1809
 C    0.9066    0.3015    0.4350
 N    0.9085    0.2663    0.4550
 H    0.8886    0.3217    0.4387
 H    0.9627    0.1903    0.4309
Zn    0.7500    0.0000    0.3750
Zn    0.7500    0.0000    0.1250
Zn    0.8750    0.2500    0.5000
Zn    0.6250    0.2500    0.0000
Zn    0.5000    0.3750    0.2500
Zn    0.5000    0.1250    0.2500
Zn    0.0000    0.2500    0.3750
Zn    0.5000    0.2500    0.1250
Zn    0.7500    0.3750    0.0000
Zn    0.7500    0.1250    0.0000
Zn    0.8750    0.0000    0.2500
Zn    0.6250    0.0000    0.2500
 C    0.6886    0.0006    0.3114
 C    0.7021    0.0423    0.2979
 H    0.7208    0.0413    0.2792
 C    0.9386    0.2506    0.0614
 C    0.9521    0.2923    0.0479
 H    0.9708    0.2913    0.0292
 C    0.8114    0.4994    0.3114
 C    0.7979    0.4577    0.2979
 H    0.7792    0.4587    0.2792
 C    0.5614    0.2494    0.0614
 C    0.5479    0.2077    0.0479
 H    0.5292    0.2087    0.0292
 C    0.8114    0.0006    0.1886
 C    0.7979    0.0423    0.2021
 H    0.7792    0.0413    0.2208
 C    0.5614    0.2506    0.4386
 C    0.5479    0.2923    0.4521
 H    0.5292    0.2913    0.4708
 C    0.6886    0.4994    0.1886
 C    0.7021    0.4577    0.2021
 H    0.7208    0.4587    0.2208
 C    0.9386    0.2494    0.4386
 C    0.9521    0.2077    0.4521
 H    0.9708    0.2087    0.4708
 C    0.8114    0.1886    0.0006
 C    0.7979    0.2021    0.0423
 H    0.7792    0.2208    0.0413
 C    0.5614    0.4386    0.2506
 C    0.5479    0.4521    0.2923
 H    0.5292    0.4708    0.2913
 C    0.8114    0.3114    0.4994
 C    0.7979    0.2979    0.4577
 H    0.7792    0.2792    0.4587
 C    0.5614    0.0614    0.2494
 C    0.5479    0.0479    0.2077
 H    0.5292    0.0292    0.2087
 C    0.6886    0.3114    0.0006
 C    0.7021    0.2979    0.0423
 H    0.7208    0.2792    0.0413
 C    0.9386    0.0614    0.2506
 C    0.9521    0.0479    0.2923
 H    0.9708    0.0292    0.2913
 C    0.6886    0.1886    0.4994
 C    0.7021    0.2021    0.4577
 H    0.7208    0.2208    0.4587
 C    0.9386    0.4386    0.2494
 C    0.9521    0.4521    0.2077
 H    0.9708    0.4708    0.2087
 C    0.5006    0.3114    0.1886
 C    0.5423    0.2979    0.2021
 H    0.5413    0.2792    0.2208
 C    0.7506    0.0614    0.4386
 C    0.7923    0.0479    0.4521
 H    0.7913    0.0292    0.4708
 C    0.9994    0.3114    0.3114
 C    0.9577    0.2979    0.2979
 H    0.9587    0.2792    0.2792
 C    0.7494    0.0614    0.0614
 C    0.7077    0.0479    0.0479
 H    0.7087    0.0292    0.0292
 C    0.5006    0.1886    0.3114
 C    0.5423    0.2021    0.2979
 H    0.5413    0.2208    0.2792
 C    0.7506    0.4386    0.0614
 C    0.7923    0.4521    0.0479
 H    0.7913    0.4708    0.0292
 C    0.9994    0.1886    0.1886
 C    0.9577    0.2021    0.2021
 H    0.9587    0.2208    0.2208
 C    0.7494    0.4386    0.4386
 C    0.7077    0.4521    0.4521
 H    0.7087    0.4708    0.4708


