#======================================================================

# CRYSTAL DATA

#----------------------------------------------------------------------

data_VESTA_phase_1


_chemical_name_common                  ''
_cell_length_a                         45.84600
_cell_length_b                         45.84600
_cell_length_c                         37.11000
_cell_angle_alpha                      90
_cell_angle_beta                       90
_cell_angle_gamma                      120
_space_group_name_H-M_alt              'P 1'
_space_group_IT_number                 1

loop_
_space_group_symop_operation_xyz
   'x, y, z'

loop_
   _atom_site_label
   _atom_site_occupancy
   _atom_site_fract_x
   _atom_site_fract_y
   _atom_site_fract_z
   _atom_site_adp_type
   _atom_site_B_iso_or_equiv
   _atom_site_type_symbol
   Zn1        1.0     0.705017      0.337707      0.228500     Biso  1.000000 Zn
   Zn2        1.0     0.662292      0.367310      0.228500     Biso  1.000000 Zn
   Zn3        1.0     0.632690      0.294983      0.228500     Biso  1.000000 Zn
   Zn4        1.0     0.662292      0.294983      0.271500     Biso  1.000000 Zn
   Zn5        1.0     0.632690      0.337707      0.271500     Biso  1.000000 Zn
   Zn6        1.0     0.705017      0.367310      0.271500     Biso  1.000000 Zn
   Zn7        1.0     0.294983      0.662293      0.771500     Biso  1.000000 Zn
   Zn8        1.0     0.337708      0.632690      0.771500     Biso  1.000000 Zn
   Zn9        1.0     0.367310      0.705017      0.771500     Biso  1.000000 Zn
   Zn10       1.0     0.337707      0.705017      0.728500     Biso  1.000000 Zn
   Zn11       1.0     0.367310      0.662293      0.728500     Biso  1.000000 Zn
   Zn12       1.0     0.294983      0.632690      0.728500     Biso  1.000000 Zn
   Zn13       1.0     0.666687      0.333313      0.293100     Biso  1.000000 Zn
   Zn14       1.0     0.666687      0.333313      0.206900     Biso  1.000000 Zn
   Zn15       1.0     0.333313      0.666687      0.706900     Biso  1.000000 Zn
   Zn16       1.0     0.333313      0.666687      0.793100     Biso  1.000000 Zn
   Zn17       1.0     0.851318      0.215698      0.741000     Biso  1.000000 Zn
   Zn18       1.0     0.784302      0.635620      0.741000     Biso  1.000000 Zn
   Zn19       1.0     0.364380      0.148682      0.741000     Biso  1.000000 Zn
   Zn20       1.0     0.784302      0.148682      0.759000     Biso  1.000000 Zn
   Zn21       1.0     0.364380      0.215698      0.759000     Biso  1.000000 Zn
   Zn22       1.0     0.851318      0.635620      0.759000     Biso  1.000000 Zn
   Zn23       1.0     0.148682      0.784302      0.259000     Biso  1.000000 Zn
   Zn24       1.0     0.215698      0.364380      0.259000     Biso  1.000000 Zn
   Zn25       1.0     0.635620      0.851318      0.259000     Biso  1.000000 Zn
   Zn26       1.0     0.215698      0.851318      0.241000     Biso  1.000000 Zn
   Zn27       1.0     0.635620      0.784302      0.241000     Biso  1.000000 Zn
   Zn28       1.0     0.148682      0.364380      0.241000     Biso  1.000000 Zn
   Zn29       1.0     0.843689      0.146729      0.710600     Biso  1.000000 Zn
   Zn30       1.0     0.853271      0.696960      0.710600     Biso  1.000000 Zn
   Zn31       1.0     0.303039      0.156311      0.710600     Biso  1.000000 Zn
   Zn32       1.0     0.853271      0.156311      0.789400     Biso  1.000000 Zn
   Zn33       1.0     0.303039      0.146729      0.789400     Biso  1.000000 Zn
   Zn34       1.0     0.843689      0.696960      0.789400     Biso  1.000000 Zn
   Zn35       1.0     0.156311      0.853271      0.289400     Biso  1.000000 Zn
   Zn36       1.0     0.146729      0.303039      0.289400     Biso  1.000000 Zn
   Zn37       1.0     0.696961      0.843689      0.289400     Biso  1.000000 Zn
   Zn38       1.0     0.146728      0.843689      0.210600     Biso  1.000000 Zn
   Zn39       1.0     0.696961      0.853271      0.210600     Biso  1.000000 Zn
   Zn40       1.0     0.156311      0.303039      0.210600     Biso  1.000000 Zn
   O1         1.0     0.822388      0.224487      0.756400     Biso  1.000000 O
   O2         1.0     0.775513      0.597900      0.756400     Biso  1.000000 O
   O3         1.0     0.402100      0.177612      0.756400     Biso  1.000000 O
   O4         1.0     0.775513      0.177612      0.743600     Biso  1.000000 O
   O5         1.0     0.402100      0.224487      0.743600     Biso  1.000000 O
   O6         1.0     0.822388      0.597900      0.743600     Biso  1.000000 O
   O7         1.0     0.177612      0.775513      0.243600     Biso  1.000000 O
   O8         1.0     0.224487      0.402100      0.243600     Biso  1.000000 O
   O9         1.0     0.597900      0.822388      0.243600     Biso  1.000000 O
   O10        1.0     0.224487      0.822388      0.256400     Biso  1.000000 O
   O11        1.0     0.597900      0.775513      0.256400     Biso  1.000000 O
   O12        1.0     0.177612      0.402100      0.256400     Biso  1.000000 O
   O13        1.0     0.872375      0.138000      0.721100     Biso  1.000000 O
   O14        1.0     0.862000      0.734375      0.721100     Biso  1.000000 O
   O15        1.0     0.265625      0.127625      0.721100     Biso  1.000000 O
   O16        1.0     0.861999      0.127625      0.778900     Biso  1.000000 O
   O17        1.0     0.265625      0.138000      0.778900     Biso  1.000000 O
   O18        1.0     0.872376      0.734375      0.778900     Biso  1.000000 O
   O19        1.0     0.127625      0.862000      0.278900     Biso  1.000000 O
   O20        1.0     0.138000      0.265625      0.278900     Biso  1.000000 O
   O21        1.0     0.734375      0.872375      0.278900     Biso  1.000000 O
   O22        1.0     0.138001      0.872375      0.221100     Biso  1.000000 O
   O23        1.0     0.734375      0.862000      0.221100     Biso  1.000000 O
   O24        1.0     0.127624      0.265625      0.221100     Biso  1.000000 O
   O25        1.0     0.700806      0.330200      0.311900     Biso  1.000000 O
   O26        1.0     0.669800      0.370606      0.311900     Biso  1.000000 O
   O27        1.0     0.629394      0.299194      0.311900     Biso  1.000000 O
   O28        1.0     0.669800      0.299194      0.188100     Biso  1.000000 O
   O29        1.0     0.629394      0.330200      0.188100     Biso  1.000000 O
   O30        1.0     0.700806      0.370606      0.188100     Biso  1.000000 O
   O31        1.0     0.299194      0.669800      0.688100     Biso  1.000000 O
   O32        1.0     0.330200      0.629395      0.688100     Biso  1.000000 O
   O33        1.0     0.370605      0.700806      0.688100     Biso  1.000000 O
   O34        1.0     0.330200      0.700806      0.811900     Biso  1.000000 O
   O35        1.0     0.370606      0.669800      0.811900     Biso  1.000000 O
   O36        1.0     0.299194      0.629395      0.811900     Biso  1.000000 O
   O37        1.0     0.730713      0.337097      0.262900     Biso  1.000000 O
   O38        1.0     0.662903      0.393616      0.262900     Biso  1.000000 O
   O39        1.0     0.606384      0.269287      0.262900     Biso  1.000000 O
   O40        1.0     0.662903      0.269287      0.237100     Biso  1.000000 O
   O41        1.0     0.606384      0.337097      0.237100     Biso  1.000000 O
   O42        1.0     0.730713      0.393616      0.237100     Biso  1.000000 O
   O43        1.0     0.269287      0.662903      0.737100     Biso  1.000000 O
   O44        1.0     0.337097      0.606384      0.737100     Biso  1.000000 O
   O45        1.0     0.393616      0.730713      0.737100     Biso  1.000000 O
   O46        1.0     0.337097      0.730713      0.762900     Biso  1.000000 O
   O47        1.0     0.393616      0.662903      0.762900     Biso  1.000000 O
   O48        1.0     0.269287      0.606384      0.762900     Biso  1.000000 O
   O49        1.0     0.111511      0.346680      0.266500     Biso  1.000000 O
   O50        1.0     0.653320      0.764771      0.266500     Biso  1.000000 O
   O51        1.0     0.235229      0.888489      0.266500     Biso  1.000000 O
   O52        1.0     0.653320      0.888489      0.233500     Biso  1.000000 O
   O53        1.0     0.235229      0.346680      0.233500     Biso  1.000000 O
   O54        1.0     0.111511      0.764771      0.233500     Biso  1.000000 O
   O55        1.0     0.888489      0.653320      0.733500     Biso  1.000000 O
   O56        1.0     0.346680      0.235230      0.733500     Biso  1.000000 O
   O57        1.0     0.764771      0.111511      0.733500     Biso  1.000000 O
   O58        1.0     0.346680      0.111511      0.766500     Biso  1.000000 O
   O59        1.0     0.764771      0.653320      0.766500     Biso  1.000000 O
   O60        1.0     0.888489      0.235230      0.766500     Biso  1.000000 O
   O61        1.0     0.109985      0.305908      0.299500     Biso  1.000000 O
   O62        1.0     0.694092      0.804077      0.299500     Biso  1.000000 O
   O63        1.0     0.195923      0.890015      0.299500     Biso  1.000000 O
   O64        1.0     0.694092      0.890015      0.200500     Biso  1.000000 O
   O65        1.0     0.195923      0.305908      0.200500     Biso  1.000000 O
   O66        1.0     0.109985      0.804077      0.200500     Biso  1.000000 O
   O67        1.0     0.890015      0.694092      0.700500     Biso  1.000000 O
   O68        1.0     0.305908      0.195923      0.700500     Biso  1.000000 O
   O69        1.0     0.804077      0.109985      0.700500     Biso  1.000000 O
   O70        1.0     0.305908      0.109985      0.799500     Biso  1.000000 O
   O71        1.0     0.804077      0.694092      0.799500     Biso  1.000000 O
   O72        1.0     0.890015      0.195923      0.799500     Biso  1.000000 O
   O73        1.0     0.851685      0.173279      0.674100     Biso  1.000000 O
   O74        1.0     0.826721      0.678406      0.674100     Biso  1.000000 O
   O75        1.0     0.321594      0.148316      0.674100     Biso  1.000000 O
   O76        1.0     0.826721      0.148316      0.825900     Biso  1.000000 O
   O77        1.0     0.321594      0.173279      0.825900     Biso  1.000000 O
   O78        1.0     0.851685      0.678406      0.825900     Biso  1.000000 O
   O79        1.0     0.148315      0.826721      0.325900     Biso  1.000000 O
   O80        1.0     0.173279      0.321594      0.325900     Biso  1.000000 O
   O81        1.0     0.678406      0.851684      0.325900     Biso  1.000000 O
   O82        1.0     0.173279      0.851684      0.174100     Biso  1.000000 O
   O83        1.0     0.678406      0.826721      0.174100     Biso  1.000000 O
   O84        1.0     0.148315      0.321594      0.174100     Biso  1.000000 O
   O85        1.0     0.858521      0.221008      0.696400     Biso  1.000000 O
   O86        1.0     0.778992      0.637512      0.696400     Biso  1.000000 O
   O87        1.0     0.362488      0.141479      0.696400     Biso  1.000000 O
   O88        1.0     0.778992      0.141479      0.803600     Biso  1.000000 O
   O89        1.0     0.362488      0.221008      0.803600     Biso  1.000000 O
   O90        1.0     0.858521      0.637512      0.803600     Biso  1.000000 O
   O91        1.0     0.141479      0.778992      0.303600     Biso  1.000000 O
   O92        1.0     0.221008      0.362488      0.303600     Biso  1.000000 O
   O93        1.0     0.637512      0.858520      0.303600     Biso  1.000000 O
   O94        1.0     0.221008      0.858520      0.196400     Biso  1.000000 O
   O95        1.0     0.637512      0.778992      0.196400     Biso  1.000000 O
   O96        1.0     0.141479      0.362488      0.196400     Biso  1.000000 O
   O97        1.0     0.666687      0.333313      0.250000     Biso  1.000000 O
   O98        1.0     0.333313      0.666687      0.750000     Biso  1.000000 O
   O99        1.0     0.832336      0.167603      0.750000     Biso  1.000000 O
   O100       1.0     0.335327      0.167664      0.750000     Biso  1.000000 O
   O101       1.0     0.832398      0.664673      0.750000     Biso  1.000000 O
   O102       1.0     0.167664      0.832397      0.250000     Biso  1.000000 O
   O103       1.0     0.664673      0.832336      0.250000     Biso  1.000000 O
   O104       1.0     0.167602      0.335327      0.250000     Biso  1.000000 O
   C1         1.0     0.702026      0.351013      0.750000     Biso  1.000000 C
   C2         1.0     0.648987      0.297974      0.750000     Biso  1.000000 C
   C3         1.0     0.648987      0.351013      0.750000     Biso  1.000000 C
   C4         1.0     0.297974      0.648987      0.250000     Biso  1.000000 C
   C5         1.0     0.351013      0.702026      0.250000     Biso  1.000000 C
   C6         1.0     0.351013      0.648987      0.250000     Biso  1.000000 C
   C7         1.0     0.684509      0.315613      0.750000     Biso  1.000000 C
   C8         1.0     0.631104      0.315491      0.750000     Biso  1.000000 C
   C9         1.0     0.684387      0.368896      0.750000     Biso  1.000000 C
   C10        1.0     0.315491      0.684387      0.250000     Biso  1.000000 C
   C11        1.0     0.368896      0.684509      0.250000     Biso  1.000000 C
   C12        1.0     0.315613      0.631104      0.250000     Biso  1.000000 C
   C13        1.0     0.702820      0.297302      0.750000     Biso  1.000000 C
   C14        1.0     0.594482      0.297180      0.750000     Biso  1.000000 C
   C15        1.0     0.702698      0.405518      0.750000     Biso  1.000000 C
   C16        1.0     0.297180      0.702698      0.250000     Biso  1.000000 C
   C17        1.0     0.405518      0.702820      0.250000     Biso  1.000000 C
   C18        1.0     0.297302      0.594482      0.250000     Biso  1.000000 C
   C19        1.0     0.718079      0.281982      0.750000     Biso  1.000000 C
   C20        1.0     0.563904      0.281921      0.750000     Biso  1.000000 C
   C21        1.0     0.718018      0.436096      0.750000     Biso  1.000000 C
   C22        1.0     0.281921      0.718018      0.250000     Biso  1.000000 C
   C23        1.0     0.436096      0.718079      0.250000     Biso  1.000000 C
   C24        1.0     0.281982      0.563904      0.250000     Biso  1.000000 C
   C25        1.0     0.736389      0.263672      0.750000     Biso  1.000000 C
   C26        1.0     0.527283      0.263611      0.750000     Biso  1.000000 C
   C27        1.0     0.736328      0.472717      0.750000     Biso  1.000000 C
   C28        1.0     0.263611      0.736328      0.250000     Biso  1.000000 C
   C29        1.0     0.472717      0.736389      0.250000     Biso  1.000000 C
   C30        1.0     0.263672      0.527283      0.250000     Biso  1.000000 C
   C31        1.0     0.771118      0.280517      0.756900     Biso  1.000000 C
   C32        1.0     0.719483      0.490601      0.756900     Biso  1.000000 C
   C33        1.0     0.509399      0.228882      0.756900     Biso  1.000000 C
   C34        1.0     0.719482      0.228882      0.743100     Biso  1.000000 C
   C35        1.0     0.509399      0.280517      0.743100     Biso  1.000000 C
   C36        1.0     0.771118      0.490601      0.743100     Biso  1.000000 C
   C37        1.0     0.228882      0.719483      0.243100     Biso  1.000000 C
   C38        1.0     0.280518      0.509399      0.243100     Biso  1.000000 C
   C39        1.0     0.490600      0.771118      0.243100     Biso  1.000000 C
   C40        1.0     0.280518      0.771118      0.256900     Biso  1.000000 C
   C41        1.0     0.490601      0.719483      0.256900     Biso  1.000000 C
   C42        1.0     0.228882      0.509399      0.256900     Biso  1.000000 C
   C43        1.0     0.788818      0.262817      0.756900     Biso  1.000000 C
   C44        1.0     0.737183      0.526001      0.756900     Biso  1.000000 C
   C45        1.0     0.473999      0.211182      0.756900     Biso  1.000000 C
   C46        1.0     0.737183      0.211182      0.743100     Biso  1.000000 C
   C47        1.0     0.473999      0.262817      0.743100     Biso  1.000000 C
   C48        1.0     0.788818      0.526001      0.743100     Biso  1.000000 C
   C49        1.0     0.211182      0.737183      0.243100     Biso  1.000000 C
   C50        1.0     0.262817      0.473999      0.243100     Biso  1.000000 C
   C51        1.0     0.526001      0.788818      0.243100     Biso  1.000000 C
   C52        1.0     0.262817      0.788818      0.256900     Biso  1.000000 C
   C53        1.0     0.526001      0.737183      0.256900     Biso  1.000000 C
   C54        1.0     0.211182      0.473999      0.256900     Biso  1.000000 C
   C55        1.0     0.772095      0.227905      0.750000     Biso  1.000000 C
   C56        1.0     0.455811      0.227905      0.750000     Biso  1.000000 C
   C57        1.0     0.772095      0.544189      0.750000     Biso  1.000000 C
   C58        1.0     0.227905      0.772095      0.250000     Biso  1.000000 C
   C59        1.0     0.544189      0.772095      0.250000     Biso  1.000000 C
   C60        1.0     0.227905      0.455811      0.250000     Biso  1.000000 C
   C61        1.0     0.791016      0.208984      0.750000     Biso  1.000000 C
   C62        1.0     0.418030      0.208984      0.750000     Biso  1.000000 C
   C63        1.0     0.791016      0.581970      0.750000     Biso  1.000000 C
   C64        1.0     0.208984      0.791016      0.250000     Biso  1.000000 C
   C65        1.0     0.581970      0.791016      0.250000     Biso  1.000000 C
   C66        1.0     0.208984      0.418030      0.250000     Biso  1.000000 C
   C67        1.0     0.017578      0.035278      0.750000     Biso  1.000000 C
   C68        1.0     0.017700      0.982422      0.750000     Biso  1.000000 C
   C69        1.0     0.964722      0.982300      0.750000     Biso  1.000000 C
   C70        1.0     0.982422      0.964722      0.250000     Biso  1.000000 C
   C71        1.0     0.982300      0.017578      0.250000     Biso  1.000000 C
   C72        1.0     0.035278      0.017700      0.250000     Biso  1.000000 C
   C73        1.0     0.982300      0.017822      0.750000     Biso  1.000000 C
   C74        1.0     0.035522      0.017700      0.750000     Biso  1.000000 C
   C75        1.0     0.982178      0.964477      0.750000     Biso  1.000000 C
   C76        1.0     0.017700      0.982178      0.250000     Biso  1.000000 C
   C77        1.0     0.964477      0.982300      0.250000     Biso  1.000000 C
   C78        1.0     0.017822      0.035523      0.250000     Biso  1.000000 C
   C79        1.0     0.963928      0.036072      0.750000     Biso  1.000000 C
   C80        1.0     0.072205      0.036072      0.750000     Biso  1.000000 C
   C81        1.0     0.963928      0.927795      0.750000     Biso  1.000000 C
   C82        1.0     0.036072      0.963928      0.250000     Biso  1.000000 C
   C83        1.0     0.927795      0.963928      0.250000     Biso  1.000000 C
   C84        1.0     0.036072      0.072205      0.250000     Biso  1.000000 C
   C85        1.0     0.948608      0.051392      0.750000     Biso  1.000000 C
   C86        1.0     0.102783      0.051392      0.750000     Biso  1.000000 C
   C87        1.0     0.948608      0.897217      0.750000     Biso  1.000000 C
   C88        1.0     0.051392      0.948608      0.250000     Biso  1.000000 C
   C89        1.0     0.897217      0.948608      0.250000     Biso  1.000000 C
   C90        1.0     0.051392      0.102783      0.250000     Biso  1.000000 C
   C91        1.0     0.930298      0.069580      0.750000     Biso  1.000000 C
   C92        1.0     0.139282      0.069702      0.750000     Biso  1.000000 C
   C93        1.0     0.930420      0.860718      0.750000     Biso  1.000000 C
   C94        1.0     0.069702      0.930420      0.250000     Biso  1.000000 C
   C95        1.0     0.860718      0.930298      0.250000     Biso  1.000000 C
   C96        1.0     0.069580      0.139282      0.250000     Biso  1.000000 C
   C97        1.0     0.915588      0.074097      0.779400     Biso  1.000000 C
   C98        1.0     0.925903      0.841492      0.779400     Biso  1.000000 C
   C99        1.0     0.158508      0.084412      0.779400     Biso  1.000000 C
   C100       1.0     0.925903      0.084412      0.720600     Biso  1.000000 C
   C101       1.0     0.158508      0.074097      0.720600     Biso  1.000000 C
   C102       1.0     0.915588      0.841492      0.720600     Biso  1.000000 C
   C103       1.0     0.084412      0.925903      0.220600     Biso  1.000000 C
   C104       1.0     0.074097      0.158508      0.220600     Biso  1.000000 C
   C105       1.0     0.841492      0.915588      0.220600     Biso  1.000000 C
   C106       1.0     0.074097      0.915588      0.279400     Biso  1.000000 C
   C107       1.0     0.841492      0.925903      0.279400     Biso  1.000000 C
   C108       1.0     0.084412      0.158508      0.279400     Biso  1.000000 C
   C109       1.0     0.897583      0.091003      0.782400     Biso  1.000000 C
   C110       1.0     0.908997      0.806580      0.782400     Biso  1.000000 C
   C111       1.0     0.193420      0.102417      0.782400     Biso  1.000000 C
   C112       1.0     0.908996      0.102417      0.717600     Biso  1.000000 C
   C113       1.0     0.193420      0.091003      0.717600     Biso  1.000000 C
   C114       1.0     0.897583      0.806580      0.717600     Biso  1.000000 C
   C115       1.0     0.102417      0.908997      0.217600     Biso  1.000000 C
   C116       1.0     0.091004      0.193421      0.217600     Biso  1.000000 C
   C117       1.0     0.806579      0.897583      0.217600     Biso  1.000000 C
   C118       1.0     0.091003      0.897583      0.282400     Biso  1.000000 C
   C119       1.0     0.806580      0.908997      0.282400     Biso  1.000000 C
   C120       1.0     0.102417      0.193421      0.282400     Biso  1.000000 C
   C121       1.0     0.893982      0.106018      0.750000     Biso  1.000000 C
   C122       1.0     0.211975      0.106018      0.750000     Biso  1.000000 C
   C123       1.0     0.893982      0.788025      0.750000     Biso  1.000000 C
   C124       1.0     0.106018      0.893982      0.250000     Biso  1.000000 C
   C125       1.0     0.788025      0.893982      0.250000     Biso  1.000000 C
   C126       1.0     0.106018      0.211975      0.250000     Biso  1.000000 C
   C127       1.0     0.875122      0.124817      0.750000     Biso  1.000000 C
   C128       1.0     0.249695      0.124878      0.750000     Biso  1.000000 C
   C129       1.0     0.875183      0.750305      0.750000     Biso  1.000000 C
   C130       1.0     0.124878      0.875183      0.250000     Biso  1.000000 C
   C131       1.0     0.750305      0.875122      0.250000     Biso  1.000000 C
   C132       1.0     0.124817      0.249695      0.250000     Biso  1.000000 C
   C133       1.0     0.725220      0.329224      0.301400     Biso  1.000000 C
   C134       1.0     0.670776      0.395996      0.301400     Biso  1.000000 C
   C135       1.0     0.604004      0.274780      0.301400     Biso  1.000000 C
   C136       1.0     0.670776      0.274780      0.198600     Biso  1.000000 C
   C137       1.0     0.604004      0.329224      0.198600     Biso  1.000000 C
   C138       1.0     0.725220      0.395996      0.198600     Biso  1.000000 C
   C139       1.0     0.274780      0.670776      0.698600     Biso  1.000000 C
   C140       1.0     0.329224      0.604004      0.698600     Biso  1.000000 C
   C141       1.0     0.395996      0.725220      0.698600     Biso  1.000000 C
   C142       1.0     0.329224      0.725220      0.801400     Biso  1.000000 C
   C143       1.0     0.395996      0.670776      0.801400     Biso  1.000000 C
   C144       1.0     0.274780      0.604004      0.801400     Biso  1.000000 C
   C145       1.0     0.772278      0.315491      0.373000     Biso  1.000000 C
   C146       1.0     0.684509      0.456787      0.373000     Biso  1.000000 C
   C147       1.0     0.543213      0.227722      0.373000     Biso  1.000000 C
   C148       1.0     0.684509      0.227722      0.127000     Biso  1.000000 C
   C149       1.0     0.543213      0.315491      0.127000     Biso  1.000000 C
   C150       1.0     0.772278      0.456787      0.127000     Biso  1.000000 C
   C151       1.0     0.227722      0.684509      0.627000     Biso  1.000000 C
   C152       1.0     0.315491      0.543213      0.627000     Biso  1.000000 C
   C153       1.0     0.456787      0.772278      0.627000     Biso  1.000000 C
   C154       1.0     0.315491      0.772278      0.873000     Biso  1.000000 C
   C155       1.0     0.456787      0.684509      0.873000     Biso  1.000000 C
   C156       1.0     0.227722      0.543213      0.873000     Biso  1.000000 C
   C157       1.0     0.748474      0.320679      0.355000     Biso  1.000000 C
   C158       1.0     0.679321      0.427795      0.355000     Biso  1.000000 C
   C159       1.0     0.572204      0.251526      0.355000     Biso  1.000000 C
   C160       1.0     0.679321      0.251526      0.145000     Biso  1.000000 C
   C161       1.0     0.572204      0.320679      0.145000     Biso  1.000000 C
   C162       1.0     0.748474      0.427795      0.145000     Biso  1.000000 C
   C163       1.0     0.251526      0.679321      0.645000     Biso  1.000000 C
   C164       1.0     0.320679      0.572205      0.645000     Biso  1.000000 C
   C165       1.0     0.427796      0.748474      0.645000     Biso  1.000000 C
   C166       1.0     0.320679      0.748474      0.855000     Biso  1.000000 C
   C167       1.0     0.427795      0.679321      0.855000     Biso  1.000000 C
   C168       1.0     0.251526      0.572205      0.855000     Biso  1.000000 C
   C169       1.0     0.751282      0.325378      0.321900     Biso  1.000000 C
   C170       1.0     0.674622      0.425903      0.321900     Biso  1.000000 C
   C171       1.0     0.574097      0.248718      0.321900     Biso  1.000000 C
   C172       1.0     0.674622      0.248718      0.178100     Biso  1.000000 C
   C173       1.0     0.574097      0.325378      0.178100     Biso  1.000000 C
   C174       1.0     0.751282      0.425903      0.178100     Biso  1.000000 C
   C175       1.0     0.248718      0.674622      0.678100     Biso  1.000000 C
   C176       1.0     0.325378      0.574097      0.678100     Biso  1.000000 C
   C177       1.0     0.425903      0.751282      0.678100     Biso  1.000000 C
   C178       1.0     0.325378      0.751282      0.821900     Biso  1.000000 C
   C179       1.0     0.425903      0.674622      0.821900     Biso  1.000000 C
   C180       1.0     0.248718      0.574097      0.821900     Biso  1.000000 C
   C181       1.0     0.781311      0.331909      0.300000     Biso  1.000000 C
   C182       1.0     0.668091      0.449402      0.300000     Biso  1.000000 C
   C183       1.0     0.550598      0.218689      0.300000     Biso  1.000000 C
   C184       1.0     0.668091      0.218689      0.200000     Biso  1.000000 C
   C185       1.0     0.550598      0.331909      0.200000     Biso  1.000000 C
   C186       1.0     0.781311      0.449402      0.200000     Biso  1.000000 C
   C187       1.0     0.218689      0.668091      0.700000     Biso  1.000000 C
   C188       1.0     0.331909      0.550598      0.700000     Biso  1.000000 C
   C189       1.0     0.449402      0.781311      0.700000     Biso  1.000000 C
   C190       1.0     0.331909      0.781311      0.800000     Biso  1.000000 C
   C191       1.0     0.449402      0.668091      0.800000     Biso  1.000000 C
   C192       1.0     0.218689      0.550598      0.800000     Biso  1.000000 C
   C193       1.0     0.804871      0.326721      0.319000     Biso  1.000000 C
   C194       1.0     0.673279      0.478210      0.319000     Biso  1.000000 C
   C195       1.0     0.521789      0.195129      0.319000     Biso  1.000000 C
   C196       1.0     0.673279      0.195129      0.181000     Biso  1.000000 C
   C197       1.0     0.521789      0.326721      0.181000     Biso  1.000000 C
   C198       1.0     0.804871      0.478210      0.181000     Biso  1.000000 C
   C199       1.0     0.195129      0.673279      0.681000     Biso  1.000000 C
   C200       1.0     0.326721      0.521790      0.681000     Biso  1.000000 C
   C201       1.0     0.478210      0.804871      0.681000     Biso  1.000000 C
   C202       1.0     0.326721      0.804871      0.819000     Biso  1.000000 C
   C203       1.0     0.478211      0.673279      0.819000     Biso  1.000000 C
   C204       1.0     0.195129      0.521790      0.819000     Biso  1.000000 C
   C205       1.0     0.800720      0.315674      0.357400     Biso  1.000000 C
   C206       1.0     0.684326      0.484985      0.357400     Biso  1.000000 C
   C207       1.0     0.515015      0.199280      0.357400     Biso  1.000000 C
   C208       1.0     0.684326      0.199280      0.142600     Biso  1.000000 C
   C209       1.0     0.515015      0.315674      0.142600     Biso  1.000000 C
   C210       1.0     0.800720      0.484985      0.142600     Biso  1.000000 C
   C211       1.0     0.199280      0.684326      0.642600     Biso  1.000000 C
   C212       1.0     0.315674      0.515015      0.642600     Biso  1.000000 C
   C213       1.0     0.484985      0.800720      0.642600     Biso  1.000000 C
   C214       1.0     0.315674      0.800720      0.857400     Biso  1.000000 C
   C215       1.0     0.484985      0.684326      0.857400     Biso  1.000000 C
   C216       1.0     0.199280      0.515015      0.857400     Biso  1.000000 C
   C217       1.0     0.825928      0.310120      0.374700     Biso  1.000000 C
   C218       1.0     0.689880      0.515808      0.374700     Biso  1.000000 C
   C219       1.0     0.484192      0.174072      0.374700     Biso  1.000000 C
   C220       1.0     0.689880      0.174072      0.125300     Biso  1.000000 C
   C221       1.0     0.484192      0.310120      0.125300     Biso  1.000000 C
   C222       1.0     0.825928      0.515808      0.125300     Biso  1.000000 C
   C223       1.0     0.174072      0.689880      0.625300     Biso  1.000000 C
   C224       1.0     0.310120      0.484192      0.625300     Biso  1.000000 C
   C225       1.0     0.515808      0.825928      0.625300     Biso  1.000000 C
   C226       1.0     0.310120      0.825928      0.874700     Biso  1.000000 C
   C227       1.0     0.515808      0.689880      0.874700     Biso  1.000000 C
   C228       1.0     0.174072      0.484192      0.874700     Biso  1.000000 C
   C229       1.0     0.846924      0.304993      0.388700     Biso  1.000000 C
   C230       1.0     0.695007      0.541870      0.388700     Biso  1.000000 C
   C231       1.0     0.458130      0.153076      0.388700     Biso  1.000000 C
   C232       1.0     0.695007      0.153076      0.111300     Biso  1.000000 C
   C233       1.0     0.458130      0.304993      0.111300     Biso  1.000000 C
   C234       1.0     0.846924      0.541870      0.111300     Biso  1.000000 C
   C235       1.0     0.153076      0.695007      0.611300     Biso  1.000000 C
   C236       1.0     0.304993      0.458130      0.611300     Biso  1.000000 C
   C237       1.0     0.541870      0.846924      0.611300     Biso  1.000000 C
   C238       1.0     0.304993      0.846924      0.888700     Biso  1.000000 C
   C239       1.0     0.541870      0.695007      0.888700     Biso  1.000000 C
   C240       1.0     0.153076      0.458130      0.888700     Biso  1.000000 C
   C241       1.0     0.097107      0.323608      0.289800     Biso  1.000000 C
   C242       1.0     0.676392      0.773498      0.289800     Biso  1.000000 C
   C243       1.0     0.226502      0.902893      0.289800     Biso  1.000000 C
   C244       1.0     0.676392      0.902893      0.210200     Biso  1.000000 C
   C245       1.0     0.226501      0.323608      0.210200     Biso  1.000000 C
   C246       1.0     0.097107      0.773498      0.210200     Biso  1.000000 C
   C247       1.0     0.902893      0.676392      0.710200     Biso  1.000000 C
   C248       1.0     0.323608      0.226501      0.710200     Biso  1.000000 C
   C249       1.0     0.773498      0.097107      0.710200     Biso  1.000000 C
   C250       1.0     0.323608      0.097107      0.789800     Biso  1.000000 C
   C251       1.0     0.773499      0.676392      0.789800     Biso  1.000000 C
   C252       1.0     0.902893      0.226501      0.789800     Biso  1.000000 C
   C253       1.0     0.021973      0.333496      0.317400     Biso  1.000000 C
   C254       1.0     0.666504      0.688477      0.317400     Biso  1.000000 C
   C255       1.0     0.311523      0.978027      0.317400     Biso  1.000000 C
   C256       1.0     0.666504      0.978027      0.182600     Biso  1.000000 C
   C257       1.0     0.311523      0.333496      0.182600     Biso  1.000000 C
   C258       1.0     0.021973      0.688477      0.182600     Biso  1.000000 C
   C259       1.0     0.978027      0.666504      0.682600     Biso  1.000000 C
   C260       1.0     0.333496      0.311523      0.682600     Biso  1.000000 C
   C261       1.0     0.688477      0.021973      0.682600     Biso  1.000000 C
   C262       1.0     0.333496      0.021973      0.817400     Biso  1.000000 C
   C263       1.0     0.688477      0.666504      0.817400     Biso  1.000000 C
   C264       1.0     0.978027      0.311523      0.817400     Biso  1.000000 C
   C265       1.0     0.050903      0.338013      0.299300     Biso  1.000000 C
   C266       1.0     0.661987      0.712891      0.299300     Biso  1.000000 C
   C267       1.0     0.287109      0.949097      0.299300     Biso  1.000000 C
   C268       1.0     0.661987      0.949097      0.200700     Biso  1.000000 C
   C269       1.0     0.287109      0.338013      0.200700     Biso  1.000000 C
   C270       1.0     0.050903      0.712891      0.200700     Biso  1.000000 C
   C271       1.0     0.949097      0.661987      0.700700     Biso  1.000000 C
   C272       1.0     0.338013      0.287109      0.700700     Biso  1.000000 C
   C273       1.0     0.712891      0.050903      0.700700     Biso  1.000000 C
   C274       1.0     0.338013      0.050903      0.799300     Biso  1.000000 C
   C275       1.0     0.712891      0.661987      0.799300     Biso  1.000000 C
   C276       1.0     0.949097      0.287109      0.799300     Biso  1.000000 C
   C277       1.0     0.065125      0.317688      0.307500     Biso  1.000000 C
   C278       1.0     0.682312      0.747376      0.307500     Biso  1.000000 C
   C279       1.0     0.252624      0.934875      0.307500     Biso  1.000000 C
   C280       1.0     0.682312      0.934875      0.192500     Biso  1.000000 C
   C281       1.0     0.252624      0.317688      0.192500     Biso  1.000000 C
   C282       1.0     0.065125      0.747376      0.192500     Biso  1.000000 C
   C283       1.0     0.934875      0.682312      0.692500     Biso  1.000000 C
   C284       1.0     0.317688      0.252624      0.692500     Biso  1.000000 C
   C285       1.0     0.747376      0.065124      0.692500     Biso  1.000000 C
   C286       1.0     0.317688      0.065124      0.807500     Biso  1.000000 C
   C287       1.0     0.747376      0.682312      0.807500     Biso  1.000000 C
   C288       1.0     0.934875      0.252624      0.807500     Biso  1.000000 C
   C289       1.0     0.049194      0.292481      0.334000     Biso  1.000000 C
   C290       1.0     0.707520      0.756714      0.334000     Biso  1.000000 C
   C291       1.0     0.243286      0.950806      0.334000     Biso  1.000000 C
   C292       1.0     0.707519      0.950806      0.166000     Biso  1.000000 C
   C293       1.0     0.243286      0.292481      0.166000     Biso  1.000000 C
   C294       1.0     0.049194      0.756714      0.166000     Biso  1.000000 C
   C295       1.0     0.950806      0.707519      0.666000     Biso  1.000000 C
   C296       1.0     0.292480      0.243286      0.666000     Biso  1.000000 C
   C297       1.0     0.756714      0.049194      0.666000     Biso  1.000000 C
   C298       1.0     0.292480      0.049194      0.834000     Biso  1.000000 C
   C299       1.0     0.756714      0.707519      0.834000     Biso  1.000000 C
   C300       1.0     0.950806      0.243286      0.834000     Biso  1.000000 C
   C301       1.0     0.020325      0.288025      0.352100     Biso  1.000000 C
   C302       1.0     0.711975      0.732300      0.352100     Biso  1.000000 C
   C303       1.0     0.267700      0.979675      0.352100     Biso  1.000000 C
   C304       1.0     0.711975      0.979675      0.147900     Biso  1.000000 C
   C305       1.0     0.267700      0.288025      0.147900     Biso  1.000000 C
   C306       1.0     0.020325      0.732300      0.147900     Biso  1.000000 C
   C307       1.0     0.979675      0.711975      0.647900     Biso  1.000000 C
   C308       1.0     0.288025      0.267700      0.647900     Biso  1.000000 C
   C309       1.0     0.732300      0.020325      0.647900     Biso  1.000000 C
   C310       1.0     0.288025      0.020325      0.852100     Biso  1.000000 C
   C311       1.0     0.732300      0.711975      0.852100     Biso  1.000000 C
   C312       1.0     0.979675      0.267700      0.852100     Biso  1.000000 C
   C313       1.0     1.006714      0.308716      0.344100     Biso  1.000000 C
   C314       1.0     0.006714      0.308716      0.344100     Biso  1.000000 C
   C315       1.0     0.691284      0.697998      0.344100     Biso  1.000000 C
   C316       1.0     0.302002      0.993286      0.344100     Biso  1.000000 C
   C317       1.0     0.302002     -0.006714      0.344100     Biso  1.000000 C
   C318       1.0     0.691284      0.993286      0.155900     Biso  1.000000 C
   C319       1.0     0.691284     -0.006714      0.155900     Biso  1.000000 C
   C320       1.0     0.302002      0.308716      0.155900     Biso  1.000000 C
   C321       1.0     1.006714      0.697998      0.155900     Biso  1.000000 C
   C322       1.0     0.006714      0.697998      0.155900     Biso  1.000000 C
   C323       1.0     0.993286      0.691284      0.655900     Biso  1.000000 C
   C324       1.0    -0.006714      0.691284      0.655900     Biso  1.000000 C
   C325       1.0     0.308716      0.302002      0.655900     Biso  1.000000 C
   C326       1.0     0.697998      1.006714      0.655900     Biso  1.000000 C
   C327       1.0     0.697998      0.006714      0.655900     Biso  1.000000 C
   C328       1.0     0.308716      1.006714      0.844100     Biso  1.000000 C
   C329       1.0     0.308716      0.006714      0.844100     Biso  1.000000 C
   C330       1.0     0.697998      0.691284      0.844100     Biso  1.000000 C
   C331       1.0     0.993286      0.302002      0.844100     Biso  1.000000 C
   C332       1.0    -0.006714      0.302002      0.844100     Biso  1.000000 C
   C333       1.0     0.977417      0.304626      0.363800     Biso  1.000000 C
   C334       1.0     0.695374      0.672790      0.363800     Biso  1.000000 C
   C335       1.0     0.327210      0.022583      0.363800     Biso  1.000000 C
   C336       1.0     0.695373      0.022583      0.136200     Biso  1.000000 C
   C337       1.0     0.327209      0.304626      0.136200     Biso  1.000000 C
   C338       1.0     0.977417      0.672790      0.136200     Biso  1.000000 C
   C339       1.0     0.022583      0.695373      0.636200     Biso  1.000000 C
   C340       1.0     0.304626      0.327209      0.636200     Biso  1.000000 C
   C341       1.0     0.672790      0.977417      0.636200     Biso  1.000000 C
   C342       1.0     0.304627      0.977417      0.863800     Biso  1.000000 C
   C343       1.0     0.672791      0.695373      0.863800     Biso  1.000000 C
   C344       1.0     0.022583      0.327209      0.863800     Biso  1.000000 C
   C345       1.0     0.953125      0.301087      0.380700     Biso  1.000000 C
   C346       1.0     0.698914      0.651978      0.380700     Biso  1.000000 C
   C347       1.0     0.348022      0.046875      0.380700     Biso  1.000000 C
   C348       1.0     0.698914      0.046875      0.119300     Biso  1.000000 C
   C349       1.0     0.348022      0.301087      0.119300     Biso  1.000000 C
   C350       1.0     0.953125      0.651978      0.119300     Biso  1.000000 C
   C351       1.0     0.046875      0.698914      0.619300     Biso  1.000000 C
   C352       1.0     0.301086      0.348022      0.619300     Biso  1.000000 C
   C353       1.0     0.651978      0.953125      0.619300     Biso  1.000000 C
   C354       1.0     0.301086      0.953125      0.880700     Biso  1.000000 C
   C355       1.0     0.651978      0.698914      0.880700     Biso  1.000000 C
   C356       1.0     0.046875      0.348022      0.880700     Biso  1.000000 C
   C357       1.0     0.858093      0.203430      0.669700     Biso  1.000000 C
   C358       1.0     0.796570      0.654724      0.669700     Biso  1.000000 C
   C359       1.0     0.345276      0.141907      0.669700     Biso  1.000000 C
   C360       1.0     0.796570      0.141907      0.830300     Biso  1.000000 C
   C361       1.0     0.345276      0.203430      0.830300     Biso  1.000000 C
   C362       1.0     0.858093      0.654724      0.830300     Biso  1.000000 C
   C363       1.0     0.141907      0.796570      0.330300     Biso  1.000000 C
   C364       1.0     0.203430      0.345276      0.330300     Biso  1.000000 C
   C365       1.0     0.654724      0.858093      0.330300     Biso  1.000000 C
   C366       1.0     0.203430      0.858093      0.169700     Biso  1.000000 C
   C367       1.0     0.654724      0.796570      0.169700     Biso  1.000000 C
   C368       1.0     0.141907      0.345276      0.169700     Biso  1.000000 C
   C369       1.0     0.870605      0.211792      0.567600     Biso  1.000000 C
   C370       1.0     0.788208      0.658813      0.567600     Biso  1.000000 C
   C371       1.0     0.341187      0.129394      0.567600     Biso  1.000000 C
   C372       1.0     0.788208      0.129394      0.932400     Biso  1.000000 C
   C373       1.0     0.341187      0.211792      0.932400     Biso  1.000000 C
   C374       1.0     0.870606      0.658813      0.932400     Biso  1.000000 C
   C375       1.0     0.129394      0.788208      0.432400     Biso  1.000000 C
   C376       1.0     0.211792      0.341186      0.432400     Biso  1.000000 C
   C377       1.0     0.658813      0.870606      0.432400     Biso  1.000000 C
   C378       1.0     0.211792      0.870606      0.067600     Biso  1.000000 C
   C379       1.0     0.658813      0.788208      0.067600     Biso  1.000000 C
   C380       1.0     0.129394      0.341186      0.067600     Biso  1.000000 C
   C381       1.0     0.864685      0.198486      0.602700     Biso  1.000000 C
   C382       1.0     0.801514      0.666199      0.602700     Biso  1.000000 C
   C383       1.0     0.333801      0.135315      0.602700     Biso  1.000000 C
   C384       1.0     0.801514      0.135315      0.897300     Biso  1.000000 C
   C385       1.0     0.333801      0.198486      0.897300     Biso  1.000000 C
   C386       1.0     0.864685      0.666199      0.897300     Biso  1.000000 C
   C387       1.0     0.135315      0.801514      0.397300     Biso  1.000000 C
   C388       1.0     0.198486      0.333801      0.397300     Biso  1.000000 C
   C389       1.0     0.666199      0.864685      0.397300     Biso  1.000000 C
   C390       1.0     0.198486      0.864685      0.102700     Biso  1.000000 C
   C391       1.0     0.666199      0.801514      0.102700     Biso  1.000000 C
   C392       1.0     0.135315      0.333801      0.102700     Biso  1.000000 C
   C393       1.0     0.865173      0.218018      0.632400     Biso  1.000000 C
   C394       1.0     0.781983      0.647217      0.632400     Biso  1.000000 C
   C395       1.0     0.352783      0.134827      0.632400     Biso  1.000000 C
   C396       1.0     0.781982      0.134827      0.867600     Biso  1.000000 C
   C397       1.0     0.352783      0.218018      0.867600     Biso  1.000000 C
   C398       1.0     0.865173      0.647217      0.867600     Biso  1.000000 C
   C399       1.0     0.134827      0.781982      0.367600     Biso  1.000000 C
   C400       1.0     0.218017      0.352783      0.367600     Biso  1.000000 C
   C401       1.0     0.647217      0.865173      0.367600     Biso  1.000000 C
   C402       1.0     0.218018      0.865173      0.132400     Biso  1.000000 C
   C403       1.0     0.647217      0.781982      0.132400     Biso  1.000000 C
   C404       1.0     0.134827      0.352783      0.132400     Biso  1.000000 C
   C405       1.0     0.872070      0.251221      0.626000     Biso  1.000000 C
   C406       1.0     0.748779      0.620911      0.626000     Biso  1.000000 C
   C407       1.0     0.379089      0.127930      0.626000     Biso  1.000000 C
   C408       1.0     0.748779      0.127930      0.874000     Biso  1.000000 C
   C409       1.0     0.379089      0.251221      0.874000     Biso  1.000000 C
   C410       1.0     0.872070      0.620911      0.874000     Biso  1.000000 C
   C411       1.0     0.127930      0.748779      0.374000     Biso  1.000000 C
   C412       1.0     0.251221      0.379089      0.374000     Biso  1.000000 C
   C413       1.0     0.620911      0.872070      0.374000     Biso  1.000000 C
   C414       1.0     0.251221      0.872070      0.126000     Biso  1.000000 C
   C415       1.0     0.620911      0.748779      0.126000     Biso  1.000000 C
   C416       1.0     0.127930      0.379089      0.126000     Biso  1.000000 C
   C417       1.0     0.877930      0.264282      0.590800     Biso  1.000000 C
   C418       1.0     0.735718      0.613586      0.590800     Biso  1.000000 C
   C419       1.0     0.386414      0.122070      0.590800     Biso  1.000000 C
   C420       1.0     0.735718      0.122070      0.909200     Biso  1.000000 C
   C421       1.0     0.386414      0.264282      0.909200     Biso  1.000000 C
   C422       1.0     0.877930      0.613586      0.909200     Biso  1.000000 C
   C423       1.0     0.122070      0.735718      0.409200     Biso  1.000000 C
   C424       1.0     0.264282      0.386414      0.409200     Biso  1.000000 C
   C425       1.0     0.613586      0.877930      0.409200     Biso  1.000000 C
   C426       1.0     0.264282      0.877930      0.090800     Biso  1.000000 C
   C427       1.0     0.613586      0.735718      0.090800     Biso  1.000000 C
   C428       1.0     0.122070      0.386414      0.090800     Biso  1.000000 C
   C429       1.0     0.877197      0.244690      0.561400     Biso  1.000000 C
   C430       1.0     0.755310      0.632507      0.561400     Biso  1.000000 C
   C431       1.0     0.367493      0.122803      0.561400     Biso  1.000000 C
   C432       1.0     0.755310      0.122803      0.938600     Biso  1.000000 C
   C433       1.0     0.367493      0.244690      0.938600     Biso  1.000000 C
   C434       1.0     0.877197      0.632507      0.938600     Biso  1.000000 C
   C435       1.0     0.122803      0.755310      0.438600     Biso  1.000000 C
   C436       1.0     0.244690      0.367493      0.438600     Biso  1.000000 C
   C437       1.0     0.632507      0.877197      0.438600     Biso  1.000000 C
   C438       1.0     0.244690      0.877197      0.061400     Biso  1.000000 C
   C439       1.0     0.632507      0.755310      0.061400     Biso  1.000000 C
   C440       1.0     0.122803      0.367493      0.061400     Biso  1.000000 C
   C441       1.0     0.882690      0.257996      0.524900     Biso  1.000000 C
   C442       1.0     0.742004      0.624695      0.524900     Biso  1.000000 C
   C443       1.0     0.375305      0.117310      0.524900     Biso  1.000000 C
   C444       1.0     0.742005      0.117310      0.975100     Biso  1.000000 C
   C445       1.0     0.375305      0.257996      0.975100     Biso  1.000000 C
   C446       1.0     0.882690      0.624695      0.975100     Biso  1.000000 C
   C447       1.0     0.117310      0.742004      0.475100     Biso  1.000000 C
   C448       1.0     0.257996      0.375305      0.475100     Biso  1.000000 C
   C449       1.0     0.624695      0.882691      0.475100     Biso  1.000000 C
   C450       1.0     0.257996      0.882691      0.024900     Biso  1.000000 C
   C451       1.0     0.624695      0.742004      0.024900     Biso  1.000000 C
   C452       1.0     0.117309      0.375305      0.024900     Biso  1.000000 C
   C453       1.0     0.887024      0.268494      0.494200     Biso  1.000000 C
   C454       1.0     0.731506      0.618530      0.494200     Biso  1.000000 C
   C455       1.0     0.381470      0.112976      0.494200     Biso  1.000000 C
   C456       1.0     0.731506      0.112976      1.005800     Biso  1.000000 C
   C457       1.0     0.731506      0.112976      0.005800     Biso  1.000000 C
   C458       1.0     0.381470      0.268494      1.005800     Biso  1.000000 C
   C459       1.0     0.381470      0.268494      0.005800     Biso  1.000000 C
   C460       1.0     0.887024      0.618530      1.005800     Biso  1.000000 C
   C461       1.0     0.887024      0.618530      0.005800     Biso  1.000000 C
   C462       1.0     0.112976      0.731506      0.505800     Biso  1.000000 C
   C463       1.0     0.268494      0.381470      0.505800     Biso  1.000000 C
   C464       1.0     0.618530      0.887024      0.505800     Biso  1.000000 C
   C465       1.0     0.268494      0.887024      0.994200     Biso  1.000000 C
   C466       1.0     0.268494      0.887024     -0.005800     Biso  1.000000 C
   C467       1.0     0.618530      0.731506      0.994200     Biso  1.000000 C
   C468       1.0     0.618530      0.731506     -0.005800     Biso  1.000000 C
   C469       1.0     0.112976      0.381470      0.994200     Biso  1.000000 C
   C470       1.0     0.112976      0.381470     -0.005800     Biso  1.000000 C
   C471       1.0     0.867920      0.287415      0.441200     Biso  1.000000 C
   C472       1.0     0.712586      0.580505      0.441200     Biso  1.000000 C
   C473       1.0     0.419495      0.132080      0.441200     Biso  1.000000 C
   C474       1.0     0.712585      0.132080      0.058800     Biso  1.000000 C
   C475       1.0     0.419495      0.287415      0.058800     Biso  1.000000 C
   C476       1.0     0.867920      0.580505      0.058800     Biso  1.000000 C
   C477       1.0     0.132080      0.712585      0.558800     Biso  1.000000 C
   C478       1.0     0.287414      0.419495      0.558800     Biso  1.000000 C
   C479       1.0     0.580505      0.867920      0.558800     Biso  1.000000 C
   C480       1.0     0.287415      0.867920      0.941200     Biso  1.000000 C
   C481       1.0     0.580505      0.712585      0.941200     Biso  1.000000 C
   C482       1.0     0.132080      0.419495      0.941200     Biso  1.000000 C
   C483       1.0     0.872009      0.298706      0.405300     Biso  1.000000 C
   C484       1.0     0.701294      0.573303      0.405300     Biso  1.000000 C
   C485       1.0     0.426697      0.127991      0.405300     Biso  1.000000 C
   C486       1.0     0.701294      0.127991      0.094700     Biso  1.000000 C
   C487       1.0     0.426697      0.298706      0.094700     Biso  1.000000 C
   C488       1.0     0.872009      0.573303      0.094700     Biso  1.000000 C
   C489       1.0     0.127991      0.701294      0.594700     Biso  1.000000 C
   C490       1.0     0.298706      0.426697      0.594700     Biso  1.000000 C
   C491       1.0     0.573303      0.872009      0.594700     Biso  1.000000 C
   C492       1.0     0.298706      0.872009      0.905300     Biso  1.000000 C
   C493       1.0     0.573303      0.701294      0.905300     Biso  1.000000 C
   C494       1.0     0.127991      0.426697      0.905300     Biso  1.000000 C
   C495       1.0     0.900085      0.303223      0.385500     Biso  1.000000 C
   C496       1.0     0.696777      0.596924      0.385500     Biso  1.000000 C
   C497       1.0     0.403076      0.099915      0.385500     Biso  1.000000 C
   C498       1.0     0.696777      0.099915      0.114500     Biso  1.000000 C
   C499       1.0     0.403076      0.303223      0.114500     Biso  1.000000 C
   C500       1.0     0.900085      0.596924      0.114500     Biso  1.000000 C
   C501       1.0     0.099915      0.696777      0.614500     Biso  1.000000 C
   C502       1.0     0.303223      0.403076      0.614500     Biso  1.000000 C
   C503       1.0     0.596924      0.900085      0.614500     Biso  1.000000 C
   C504       1.0     0.303223      0.900085      0.885500     Biso  1.000000 C
   C505       1.0     0.596924      0.696777      0.885500     Biso  1.000000 C
   C506       1.0     0.099915      0.403076      0.885500     Biso  1.000000 C
   C507       1.0     0.924072      0.296570      0.401300     Biso  1.000000 C
   C508       1.0     0.703430      0.627502      0.401300     Biso  1.000000 C
   C509       1.0     0.372498      0.075928      0.401300     Biso  1.000000 C
   C510       1.0     0.703430      0.075928      0.098700     Biso  1.000000 C
   C511       1.0     0.372497      0.296570      0.098700     Biso  1.000000 C
   C512       1.0     0.924072      0.627502      0.098700     Biso  1.000000 C
   C513       1.0     0.075928      0.703430      0.598700     Biso  1.000000 C
   C514       1.0     0.296570      0.372498      0.598700     Biso  1.000000 C
   C515       1.0     0.627502      0.924072      0.598700     Biso  1.000000 C
   C516       1.0     0.296570      0.924072      0.901300     Biso  1.000000 C
   C517       1.0     0.627503      0.703430      0.901300     Biso  1.000000 C
   C518       1.0     0.075928      0.372498      0.901300     Biso  1.000000 C
   C519       1.0     0.919678      0.285278      0.437200     Biso  1.000000 C
   C520       1.0     0.714722      0.634399      0.437200     Biso  1.000000 C
   C521       1.0     0.365601      0.080322      0.437200     Biso  1.000000 C
   C522       1.0     0.714722      0.080322      0.062800     Biso  1.000000 C
   C523       1.0     0.365601      0.285278      0.062800     Biso  1.000000 C
   C524       1.0     0.919678      0.634399      0.062800     Biso  1.000000 C
   C525       1.0     0.080322      0.714722      0.562800     Biso  1.000000 C
   C526       1.0     0.285278      0.365600      0.562800     Biso  1.000000 C
   C527       1.0     0.634399      0.919678      0.562800     Biso  1.000000 C
   C528       1.0     0.285278      0.919678      0.937200     Biso  1.000000 C
   C529       1.0     0.634399      0.714722      0.937200     Biso  1.000000 C
   C530       1.0     0.080322      0.365600      0.937200     Biso  1.000000 C
   C531       1.0     0.891724      0.280701      0.457300     Biso  1.000000 C
   C532       1.0     0.719299      0.611023      0.457300     Biso  1.000000 C
   C533       1.0     0.388977      0.108276      0.457300     Biso  1.000000 C
   C534       1.0     0.719299      0.108276      0.042700     Biso  1.000000 C
   C535       1.0     0.388977      0.280701      0.042700     Biso  1.000000 C
   C536       1.0     0.891724      0.611023      0.042700     Biso  1.000000 C
   C537       1.0     0.108276      0.719299      0.542700     Biso  1.000000 C
   C538       1.0     0.280701      0.388977      0.542700     Biso  1.000000 C
   C539       1.0     0.611023      0.891724      0.542700     Biso  1.000000 C
   C540       1.0     0.280701      0.891724      0.957300     Biso  1.000000 C
   C541       1.0     0.611023      0.719299      0.957300     Biso  1.000000 C
   C542       1.0     0.108276      0.388977      0.957300     Biso  1.000000 C
   H1         1.0     0.726013      0.362976      0.750000     Biso  1.000000 H
   H2         1.0     0.637024      0.273987      0.750000     Biso  1.000000 H
   H3         1.0     0.637024      0.362976      0.750000     Biso  1.000000 H
   H4         1.0     0.273987      0.637024      0.250000     Biso  1.000000 H
   H5         1.0     0.362976      0.726013      0.250000     Biso  1.000000 H
   H6         1.0     0.362976      0.637024      0.250000     Biso  1.000000 H
   H7         1.0     0.783020      0.304016      0.762000     Biso  1.000000 H
   H8         1.0     0.695984      0.479004      0.762000     Biso  1.000000 H
   H9         1.0     0.520996      0.216980      0.762000     Biso  1.000000 H
   H10        1.0     0.695984      0.216980      0.738000     Biso  1.000000 H
   H11        1.0     0.520996      0.304016      0.738000     Biso  1.000000 H
   H12        1.0     0.783020      0.479004      0.738000     Biso  1.000000 H
   H13        1.0     0.216980      0.695984      0.238000     Biso  1.000000 H
   H14        1.0     0.304016      0.520996      0.238000     Biso  1.000000 H
   H15        1.0     0.479004      0.783020      0.238000     Biso  1.000000 H
   H16        1.0     0.304016      0.783020      0.262000     Biso  1.000000 H
   H17        1.0     0.479004      0.695984      0.262000     Biso  1.000000 H
   H18        1.0     0.216980      0.520996      0.262000     Biso  1.000000 H
   H19        1.0     0.812988      0.275024      0.762000     Biso  1.000000 H
   H20        1.0     0.724976      0.538025      0.762000     Biso  1.000000 H
   H21        1.0     0.461975      0.187012      0.762000     Biso  1.000000 H
   H22        1.0     0.724976      0.187012      0.738000     Biso  1.000000 H
   H23        1.0     0.461975      0.275024      0.738000     Biso  1.000000 H
   H24        1.0     0.812988      0.538025      0.738000     Biso  1.000000 H
   H25        1.0     0.187012      0.724976      0.238000     Biso  1.000000 H
   H26        1.0     0.275024      0.461975      0.238000     Biso  1.000000 H
   H27        1.0     0.538025      0.812988      0.238000     Biso  1.000000 H
   H28        1.0     0.275024      0.812988      0.262000     Biso  1.000000 H
   H29        1.0     0.538025      0.724976      0.262000     Biso  1.000000 H
   H30        1.0     0.187012      0.461975      0.262000     Biso  1.000000 H
   H31        1.0     0.030029      0.059998      0.750000     Biso  1.000000 H
   H32        1.0     0.030029      0.969971      0.750000     Biso  1.000000 H
   H33        1.0     0.940002      0.969971      0.750000     Biso  1.000000 H
   H34        1.0     0.969971      0.940002      0.250000     Biso  1.000000 H
   H35        1.0     0.969971      0.030029      0.250000     Biso  1.000000 H
   H36        1.0     0.059998      0.030029      0.250000     Biso  1.000000 H
   H37        1.0     0.918030      0.064026      0.801000     Biso  1.000000 H
   H38        1.0     0.935974      0.854004      0.801000     Biso  1.000000 H
   H39        1.0     0.145996      0.081970      0.801000     Biso  1.000000 H
   H40        1.0     0.935974      0.081970      0.699000     Biso  1.000000 H
   H41        1.0     0.145996      0.064026      0.699000     Biso  1.000000 H
   H42        1.0     0.918030      0.854004      0.699000     Biso  1.000000 H
   H43        1.0     0.081970      0.935974      0.199000     Biso  1.000000 H
   H44        1.0     0.064026      0.145996      0.199000     Biso  1.000000 H
   H45        1.0     0.854004      0.918030      0.199000     Biso  1.000000 H
   H46        1.0     0.064026      0.918030      0.301000     Biso  1.000000 H
   H47        1.0     0.854004      0.935974      0.301000     Biso  1.000000 H
   H48        1.0     0.081970      0.145996      0.301000     Biso  1.000000 H
   H49        1.0     0.888000      0.091980      0.805000     Biso  1.000000 H
   H50        1.0     0.908020      0.796021      0.805000     Biso  1.000000 H
   H51        1.0     0.203980      0.112000      0.805000     Biso  1.000000 H
   H52        1.0     0.908020      0.112000      0.695000     Biso  1.000000 H
   H53        1.0     0.203979      0.091980      0.695000     Biso  1.000000 H
   H54        1.0     0.888000      0.796021      0.695000     Biso  1.000000 H
   H55        1.0     0.112000      0.908020      0.195000     Biso  1.000000 H
   H56        1.0     0.091980      0.203979      0.195000     Biso  1.000000 H
   H57        1.0     0.796020      0.888000      0.195000     Biso  1.000000 H
   H58        1.0     0.091980      0.888000      0.305000     Biso  1.000000 H
   H59        1.0     0.796020      0.908020      0.305000     Biso  1.000000 H
   H60        1.0     0.112000      0.203979      0.305000     Biso  1.000000 H
   H61        1.0     0.767029      0.309998      0.403000     Biso  1.000000 H
   H62        1.0     0.690002      0.456970      0.403000     Biso  1.000000 H
   H63        1.0     0.543030      0.232971      0.403000     Biso  1.000000 H
   H64        1.0     0.690002      0.232971      0.097000     Biso  1.000000 H
   H65        1.0     0.543030      0.309998      0.097000     Biso  1.000000 H
   H66        1.0     0.767029      0.456970      0.097000     Biso  1.000000 H
   H67        1.0     0.232971      0.690002      0.597000     Biso  1.000000 H
   H68        1.0     0.309998      0.543030      0.597000     Biso  1.000000 H
   H69        1.0     0.456970      0.767029      0.597000     Biso  1.000000 H
   H70        1.0     0.309998      0.767029      0.903000     Biso  1.000000 H
   H71        1.0     0.456970      0.690002      0.903000     Biso  1.000000 H
   H72        1.0     0.232971      0.543030      0.903000     Biso  1.000000 H
   H73        1.0     0.726990      0.320984      0.370000     Biso  1.000000 H
   H74        1.0     0.679016      0.406006      0.370000     Biso  1.000000 H
   H75        1.0     0.593994      0.273010      0.370000     Biso  1.000000 H
   H76        1.0     0.679016      0.273010      0.130000     Biso  1.000000 H
   H77        1.0     0.593994      0.320984      0.130000     Biso  1.000000 H
   H78        1.0     0.726990      0.406006      0.130000     Biso  1.000000 H
   H79        1.0     0.273010      0.679016      0.630000     Biso  1.000000 H
   H80        1.0     0.320984      0.593994      0.630000     Biso  1.000000 H
   H81        1.0     0.406006      0.726990      0.630000     Biso  1.000000 H
   H82        1.0     0.320984      0.726990      0.870000     Biso  1.000000 H
   H83        1.0     0.406006      0.679016      0.870000     Biso  1.000000 H
   H84        1.0     0.273010      0.593994      0.870000     Biso  1.000000 H
   H85        1.0     0.783020      0.340027      0.271000     Biso  1.000000 H
   H86        1.0     0.659973      0.442993      0.271000     Biso  1.000000 H
   H87        1.0     0.557007      0.216980      0.271000     Biso  1.000000 H
   H88        1.0     0.659973      0.216980      0.229000     Biso  1.000000 H
   H89        1.0     0.557007      0.340027      0.229000     Biso  1.000000 H
   H90        1.0     0.783020      0.442993      0.229000     Biso  1.000000 H
   H91        1.0     0.216980      0.659973      0.729000     Biso  1.000000 H
   H92        1.0     0.340027      0.557007      0.729000     Biso  1.000000 H
   H93        1.0     0.442993      0.783020      0.729000     Biso  1.000000 H
   H94        1.0     0.340027      0.783020      0.771000     Biso  1.000000 H
   H95        1.0     0.442993      0.659973      0.771000     Biso  1.000000 H
   H96        1.0     0.216980      0.557007      0.771000     Biso  1.000000 H
   H97        1.0     0.828980      0.330994      0.304000     Biso  1.000000 H
   H98        1.0     0.669006      0.497986      0.304000     Biso  1.000000 H
   H99        1.0     0.502014      0.171020      0.304000     Biso  1.000000 H
   H100       1.0     0.669006      0.171020      0.196000     Biso  1.000000 H
   H101       1.0     0.502014      0.330994      0.196000     Biso  1.000000 H
   H102       1.0     0.828980      0.497986      0.196000     Biso  1.000000 H
   H103       1.0     0.171020      0.669006      0.696000     Biso  1.000000 H
   H104       1.0     0.330994      0.502014      0.696000     Biso  1.000000 H
   H105       1.0     0.497986      0.828980      0.696000     Biso  1.000000 H
   H106       1.0     0.330994      0.828980      0.804000     Biso  1.000000 H
   H107       1.0     0.497986      0.669006      0.804000     Biso  1.000000 H
   H108       1.0     0.171021      0.502014      0.804000     Biso  1.000000 H
   H109       1.0     0.013000      0.348022      0.312000     Biso  1.000000 H
   H110       1.0     0.651977      0.664978      0.312000     Biso  1.000000 H
   H111       1.0     0.335022      0.986999      0.312000     Biso  1.000000 H
   H112       1.0     0.651977      0.986999      0.188000     Biso  1.000000 H
   H113       1.0     0.335022      0.348022      0.188000     Biso  1.000000 H
   H114       1.0     0.013000      0.664978      0.188000     Biso  1.000000 H
   H115       1.0     0.987000      0.651978      0.688000     Biso  1.000000 H
   H116       1.0     0.348023      0.335022      0.688000     Biso  1.000000 H
   H117       1.0     0.664978      0.013001      0.688000     Biso  1.000000 H
   H118       1.0     0.348023      0.013001      0.812000     Biso  1.000000 H
   H119       1.0     0.664978      0.651978      0.812000     Biso  1.000000 H
   H120       1.0     0.987000      0.335022      0.812000     Biso  1.000000 H
   H121       1.0     0.060974      0.354980      0.281000     Biso  1.000000 H
   H122       1.0     0.645019      0.705994      0.281000     Biso  1.000000 H
   H123       1.0     0.294006      0.939026      0.281000     Biso  1.000000 H
   H124       1.0     0.645020      0.939026      0.219000     Biso  1.000000 H
   H125       1.0     0.294006      0.354980      0.219000     Biso  1.000000 H
   H126       1.0     0.060974      0.705994      0.219000     Biso  1.000000 H
   H127       1.0     0.939026      0.645020      0.719000     Biso  1.000000 H
   H128       1.0     0.354981      0.294006      0.719000     Biso  1.000000 H
   H129       1.0     0.705994      0.060974      0.719000     Biso  1.000000 H
   H130       1.0     0.354981      0.060974      0.781000     Biso  1.000000 H
   H131       1.0     0.705994      0.645020      0.781000     Biso  1.000000 H
   H132       1.0     0.939026      0.294006      0.781000     Biso  1.000000 H
   H133       1.0     0.057984      0.278015      0.340000     Biso  1.000000 H
   H134       1.0     0.721985      0.780029      0.340000     Biso  1.000000 H
   H135       1.0     0.219971      0.942017      0.340000     Biso  1.000000 H
   H136       1.0     0.721985      0.942017      0.160000     Biso  1.000000 H
   H137       1.0     0.219971      0.278015      0.160000     Biso  1.000000 H
   H138       1.0     0.057983      0.780029      0.160000     Biso  1.000000 H
   H139       1.0     0.942016      0.721985      0.660000     Biso  1.000000 H
   H140       1.0     0.278015      0.219971      0.660000     Biso  1.000000 H
   H141       1.0     0.780029      0.057983      0.660000     Biso  1.000000 H
   H142       1.0     0.278015      0.057983      0.840000     Biso  1.000000 H
   H143       1.0     0.780029      0.721985      0.840000     Biso  1.000000 H
   H144       1.0     0.942017      0.219971      0.840000     Biso  1.000000 H
   H145       1.0     0.010010      0.270996      0.370000     Biso  1.000000 H
   H146       1.0     0.729004      0.739014      0.370000     Biso  1.000000 H
   H147       1.0     0.260986      0.989990      0.370000     Biso  1.000000 H
   H148       1.0     0.729004      0.989990      0.130000     Biso  1.000000 H
   H149       1.0     0.260986      0.270996      0.130000     Biso  1.000000 H
   H150       1.0     0.010010      0.739014      0.130000     Biso  1.000000 H
   H151       1.0     0.989990      0.729004      0.630000     Biso  1.000000 H
   H152       1.0     0.270996      0.260986      0.630000     Biso  1.000000 H
   H153       1.0     0.739014      0.010010      0.630000     Biso  1.000000 H
   H154       1.0     0.270996      0.010010      0.870000     Biso  1.000000 H
   H155       1.0     0.739014      0.729004      0.870000     Biso  1.000000 H
   H156       1.0     0.989990      0.260986      0.870000     Biso  1.000000 H
   H157       1.0     0.869995      0.197998      0.548000     Biso  1.000000 H
   H158       1.0     0.802002      0.671997      0.548000     Biso  1.000000 H
   H159       1.0     0.328003      0.130005      0.548000     Biso  1.000000 H
   H160       1.0     0.802002      0.130005      0.952000     Biso  1.000000 H
   H161       1.0     0.328003      0.197998      0.952000     Biso  1.000000 H
   H162       1.0     0.869995      0.671997      0.952000     Biso  1.000000 H
   H163       1.0     0.130005      0.802002      0.452000     Biso  1.000000 H
   H164       1.0     0.197998      0.328003      0.452000     Biso  1.000000 H
   H165       1.0     0.671997      0.869995      0.452000     Biso  1.000000 H
   H166       1.0     0.197998      0.869995      0.048000     Biso  1.000000 H
   H167       1.0     0.671997      0.802002      0.048000     Biso  1.000000 H
   H168       1.0     0.130005      0.328003      0.048000     Biso  1.000000 H
   H169       1.0     0.859985      0.176025      0.606000     Biso  1.000000 H
   H170       1.0     0.823975      0.684021      0.606000     Biso  1.000000 H
   H171       1.0     0.315979      0.140015      0.606000     Biso  1.000000 H
   H172       1.0     0.823974      0.140015      0.894000     Biso  1.000000 H
   H173       1.0     0.315979      0.176025      0.894000     Biso  1.000000 H
   H174       1.0     0.859985      0.684021      0.894000     Biso  1.000000 H
   H175       1.0     0.140015      0.823974      0.394000     Biso  1.000000 H
   H176       1.0     0.176025      0.315979      0.394000     Biso  1.000000 H
   H177       1.0     0.684021      0.859985      0.394000     Biso  1.000000 H
   H178       1.0     0.176026      0.859985      0.106000     Biso  1.000000 H
   H179       1.0     0.684021      0.823974      0.106000     Biso  1.000000 H
   H180       1.0     0.140015      0.315979      0.106000     Biso  1.000000 H
   H181       1.0     0.872986      0.265015      0.646000     Biso  1.000000 H
   H182       1.0     0.734985      0.607971      0.646000     Biso  1.000000 H
   H183       1.0     0.392029      0.127014      0.646000     Biso  1.000000 H
   H184       1.0     0.734985      0.127014      0.854000     Biso  1.000000 H
   H185       1.0     0.392029      0.265015      0.854000     Biso  1.000000 H
   H186       1.0     0.872986      0.607971      0.854000     Biso  1.000000 H
   H187       1.0     0.127014      0.734985      0.354000     Biso  1.000000 H
   H188       1.0     0.265015      0.392029      0.354000     Biso  1.000000 H
   H189       1.0     0.607971      0.872986      0.354000     Biso  1.000000 H
   H190       1.0     0.265015      0.872986      0.146000     Biso  1.000000 H
   H191       1.0     0.607971      0.734985      0.146000     Biso  1.000000 H
   H192       1.0     0.127014      0.392029      0.146000     Biso  1.000000 H
   H193       1.0     0.882996      0.286987      0.587000     Biso  1.000000 H
   H194       1.0     0.713013      0.596008      0.587000     Biso  1.000000 H
   H195       1.0     0.403992      0.117004      0.587000     Biso  1.000000 H
   H196       1.0     0.713013      0.117004      0.913000     Biso  1.000000 H
   H197       1.0     0.403992      0.286987      0.913000     Biso  1.000000 H
   H198       1.0     0.882996      0.596008      0.913000     Biso  1.000000 H
   H199       1.0     0.117004      0.713013      0.413000     Biso  1.000000 H
   H200       1.0     0.286987      0.403992      0.413000     Biso  1.000000 H
   H201       1.0     0.596008      0.882996      0.413000     Biso  1.000000 H
   H202       1.0     0.286987      0.882996      0.087000     Biso  1.000000 H
   H203       1.0     0.596008      0.713013      0.087000     Biso  1.000000 H
   H204       1.0     0.117004      0.403992      0.087000     Biso  1.000000 H
   H205       1.0     0.848999      0.284973      0.455000     Biso  1.000000 H
   H206       1.0     0.715027      0.564026      0.455000     Biso  1.000000 H
   H207       1.0     0.435974      0.151001      0.455000     Biso  1.000000 H
   H208       1.0     0.715027      0.151001      0.045000     Biso  1.000000 H
   H209       1.0     0.435974      0.284973      0.045000     Biso  1.000000 H
   H210       1.0     0.848999      0.564026      0.045000     Biso  1.000000 H
   H211       1.0     0.151001      0.715027      0.545000     Biso  1.000000 H
   H212       1.0     0.284973      0.435974      0.545000     Biso  1.000000 H
   H213       1.0     0.564026      0.848999      0.545000     Biso  1.000000 H
   H214       1.0     0.284973      0.848999      0.955000     Biso  1.000000 H
   H215       1.0     0.564026      0.715027      0.955000     Biso  1.000000 H
   H216       1.0     0.151001      0.435974      0.955000     Biso  1.000000 H
   H217       1.0     0.903015      0.310974      0.361000     Biso  1.000000 H
   H218       1.0     0.689026      0.591980      0.361000     Biso  1.000000 H
   H219       1.0     0.408020      0.096985      0.361000     Biso  1.000000 H
   H220       1.0     0.689026      0.096985      0.139000     Biso  1.000000 H
   H221       1.0     0.408020      0.310974      0.139000     Biso  1.000000 H
   H222       1.0     0.903015      0.591980      0.139000     Biso  1.000000 H
   H223       1.0     0.096985      0.689026      0.639000     Biso  1.000000 H
   H224       1.0     0.310974      0.408020      0.639000     Biso  1.000000 H
   H225       1.0     0.591980      0.903015      0.639000     Biso  1.000000 H
   H226       1.0     0.310974      0.903015      0.861000     Biso  1.000000 H
   H227       1.0     0.591980      0.689026      0.861000     Biso  1.000000 H
   H228       1.0     0.096985      0.408020      0.861000     Biso  1.000000 H
   H229       1.0     0.935974      0.281006      0.448000     Biso  1.000000 H
   H230       1.0     0.718994      0.655029      0.448000     Biso  1.000000 H
   H231       1.0     0.344971      0.064026      0.448000     Biso  1.000000 H
   H232       1.0     0.718994      0.064026      0.052000     Biso  1.000000 H
   H233       1.0     0.344971      0.281006      0.052000     Biso  1.000000 H
   H234       1.0     0.935974      0.655029      0.052000     Biso  1.000000 H
   H235       1.0     0.064026      0.718994      0.552000     Biso  1.000000 H
   H236       1.0     0.281006      0.344971      0.552000     Biso  1.000000 H
   H237       1.0     0.655029      0.935974      0.552000     Biso  1.000000 H
   H238       1.0     0.281006      0.935974      0.948000     Biso  1.000000 H
   H239       1.0     0.655029      0.718994      0.948000     Biso  1.000000 H
   H240       1.0     0.064026      0.344971      0.948000     Biso  1.000000 H
