#======================================================================

# CRYSTAL DATA

#----------------------------------------------------------------------

data_VESTA_phase_1


_chemical_name_common                  ''
_cell_length_a                         27.27200
_cell_length_b                         32.28600
_cell_length_c                         27.87800
_cell_angle_alpha                      90
_cell_angle_beta                       90
_cell_angle_gamma                      90
_space_group_name_H-M_alt              'P 1'
_space_group_IT_number                 1

loop_
_space_group_symop_operation_xyz
   'x, y, z'

loop_
   _atom_site_label
   _atom_site_occupancy
   _atom_site_fract_x
   _atom_site_fract_y
   _atom_site_fract_z
   _atom_site_adp_type
   _atom_site_B_iso_or_equiv
   _atom_site_type_symbol
   V1         1.0     0.949949      0.874992      0.630390     Biso  1.000000 V
   V2         1.0     0.925051      0.625008      0.880408     Biso  1.000000 V
   V3         1.0     0.824949      0.874992      0.619593     Biso  1.000000 V
   V4         1.0     0.800051      0.625008      0.869610     Biso  1.000000 V
   V5         1.0     0.699949      0.874992      0.630390     Biso  1.000000 V
   V6         1.0     0.675051      0.625008      0.880408     Biso  1.000000 V
   V7         1.0     0.574949      0.874992      0.619593     Biso  1.000000 V
   V8         1.0     0.550051      0.625008      0.869610     Biso  1.000000 V
   V9         1.0     0.449949      0.874992      0.630390     Biso  1.000000 V
   V10        1.0     0.425051      0.625008      0.880408     Biso  1.000000 V
   V11        1.0     0.324949      0.874992      0.619593     Biso  1.000000 V
   V12        1.0     0.300051      0.625008      0.869610     Biso  1.000000 V
   V13        1.0     0.199949      0.874992      0.630390     Biso  1.000000 V
   V14        1.0     0.175051      0.625008      0.880408     Biso  1.000000 V
   V15        1.0     0.074949      0.874992      0.619593     Biso  1.000000 V
   V16        1.0     0.050051      0.625008      0.869610     Biso  1.000000 V
   V17        1.0     0.949949      0.374992      0.630390     Biso  1.000000 V
   V18        1.0     0.925051      0.125008      0.880408     Biso  1.000000 V
   V19        1.0     0.824949      0.374992      0.619593     Biso  1.000000 V
   V20        1.0     0.800051      0.125008      0.869610     Biso  1.000000 V
   V21        1.0     0.699949      0.374992      0.630390     Biso  1.000000 V
   V22        1.0     0.675051      0.125008      0.880408     Biso  1.000000 V
   V23        1.0     0.574949      0.374992      0.619593     Biso  1.000000 V
   V24        1.0     0.550051      0.125008      0.869610     Biso  1.000000 V
   V25        1.0     0.449949      0.374992      0.630390     Biso  1.000000 V
   V26        1.0     0.425051      0.125008      0.880408     Biso  1.000000 V
   V27        1.0     0.324949      0.374992      0.619593     Biso  1.000000 V
   V28        1.0     0.300051      0.125008      0.869610     Biso  1.000000 V
   V29        1.0     0.199949      0.374992      0.630390     Biso  1.000000 V
   V30        1.0     0.175051      0.125008      0.880408     Biso  1.000000 V
   V31        1.0     0.074949      0.374992      0.619593     Biso  1.000000 V
   V32        1.0     0.050051      0.125008      0.869610     Biso  1.000000 V
   V33        1.0     0.949949      0.874992      0.130390     Biso  1.000000 V
   V34        1.0     0.925051      0.625008      0.380407     Biso  1.000000 V
   V35        1.0     0.824949      0.874992      0.119593     Biso  1.000000 V
   V36        1.0     0.800051      0.625008      0.369610     Biso  1.000000 V
   V37        1.0     0.699949      0.874992      0.130390     Biso  1.000000 V
   V38        1.0     0.675051      0.625008      0.380407     Biso  1.000000 V
   V39        1.0     0.574949      0.874992      0.119593     Biso  1.000000 V
   V40        1.0     0.550051      0.625008      0.369610     Biso  1.000000 V
   V41        1.0     0.449949      0.874992      0.130390     Biso  1.000000 V
   V42        1.0     0.425051      0.625008      0.380407     Biso  1.000000 V
   V43        1.0     0.324949      0.874992      0.119593     Biso  1.000000 V
   V44        1.0     0.300051      0.625008      0.369610     Biso  1.000000 V
   V45        1.0     0.199949      0.874992      0.130390     Biso  1.000000 V
   V46        1.0     0.175051      0.625008      0.380407     Biso  1.000000 V
   V47        1.0     0.074949      0.874992      0.119593     Biso  1.000000 V
   V48        1.0     0.050051      0.625008      0.369610     Biso  1.000000 V
   V49        1.0     0.949949      0.374992      0.130390     Biso  1.000000 V
   V50        1.0     0.925051      0.125008      0.380407     Biso  1.000000 V
   V51        1.0     0.824949      0.374992      0.119593     Biso  1.000000 V
   V52        1.0     0.800051      0.125008      0.369610     Biso  1.000000 V
   V53        1.0     0.699949      0.374992      0.130390     Biso  1.000000 V
   V54        1.0     0.675051      0.125008      0.380407     Biso  1.000000 V
   V55        1.0     0.574949      0.374992      0.119593     Biso  1.000000 V
   V56        1.0     0.550051      0.125008      0.369610     Biso  1.000000 V
   V57        1.0     0.449949      0.374992      0.130390     Biso  1.000000 V
   V58        1.0     0.425051      0.125008      0.380407     Biso  1.000000 V
   V59        1.0     0.324949      0.374992      0.119593     Biso  1.000000 V
   V60        1.0     0.300051      0.125008      0.369610     Biso  1.000000 V
   V61        1.0     0.199949      0.374992      0.130390     Biso  1.000000 V
   V62        1.0     0.175051      0.125008      0.380407     Biso  1.000000 V
   V63        1.0     0.074949      0.374992      0.119593     Biso  1.000000 V
   V64        1.0     0.050051      0.125008      0.369610     Biso  1.000000 V
   O1         1.0     0.910384      0.668711      0.833238     Biso  1.000000 O
   O2         1.0     0.964616      0.831289      0.583256     Biso  1.000000 O
   O3         1.0     0.785384      0.581305      0.916744     Biso  1.000000 O
   O4         1.0     0.839616      0.918695      0.666762     Biso  1.000000 O
   O5         1.0     0.839616      0.831289      0.666762     Biso  1.000000 O
   O6         1.0     0.785384      0.668711      0.916744     Biso  1.000000 O
   O7         1.0     0.964616      0.918695      0.583256     Biso  1.000000 O
   O8         1.0     0.910384      0.581305      0.833238     Biso  1.000000 O
   O9         1.0     0.827955      0.668401      0.827749     Biso  1.000000 O
   O10        1.0     0.797045      0.831599      0.577767     Biso  1.000000 O
   O11        1.0     0.952955      0.581614      0.922233     Biso  1.000000 O
   O12        1.0     0.922045      0.918386      0.672251     Biso  1.000000 O
   O13        1.0     0.922045      0.831599      0.672251     Biso  1.000000 O
   O14        1.0     0.952955      0.668401      0.922233     Biso  1.000000 O
   O15        1.0     0.797045      0.918386      0.577767     Biso  1.000000 O
   O16        1.0     0.827955      0.581614      0.827749     Biso  1.000000 O
   O17        1.0     0.881234      0.874992      0.595810     Biso  1.000000 O
   O18        1.0     0.993766      0.625008      0.845792     Biso  1.000000 O
   O19        1.0     0.756234      0.874992      0.654208     Biso  1.000000 O
   O20        1.0     0.868767      0.625008      0.904190     Biso  1.000000 O
   O21        1.0     0.660384      0.668711      0.833238     Biso  1.000000 O
   O22        1.0     0.714616      0.831289      0.583256     Biso  1.000000 O
   O23        1.0     0.535384      0.581305      0.916744     Biso  1.000000 O
   O24        1.0     0.589616      0.918695      0.666762     Biso  1.000000 O
   O25        1.0     0.589616      0.831289      0.666762     Biso  1.000000 O
   O26        1.0     0.535384      0.668711      0.916744     Biso  1.000000 O
   O27        1.0     0.714616      0.918695      0.583256     Biso  1.000000 O
   O28        1.0     0.660384      0.581305      0.833238     Biso  1.000000 O
   O29        1.0     0.577955      0.668401      0.827749     Biso  1.000000 O
   O30        1.0     0.547045      0.831599      0.577767     Biso  1.000000 O
   O31        1.0     0.702955      0.581614      0.922233     Biso  1.000000 O
   O32        1.0     0.672045      0.918386      0.672251     Biso  1.000000 O
   O33        1.0     0.672045      0.831599      0.672251     Biso  1.000000 O
   O34        1.0     0.702955      0.668401      0.922233     Biso  1.000000 O
   O35        1.0     0.547045      0.918386      0.577767     Biso  1.000000 O
   O36        1.0     0.577955      0.581614      0.827749     Biso  1.000000 O
   O37        1.0     0.631234      0.874992      0.595810     Biso  1.000000 O
   O38        1.0     0.743766      0.625008      0.845792     Biso  1.000000 O
   O39        1.0     0.506234      0.874992      0.654208     Biso  1.000000 O
   O40        1.0     0.618766      0.625008      0.904190     Biso  1.000000 O
   O41        1.0     0.410384      0.668711      0.833238     Biso  1.000000 O
   O42        1.0     0.464616      0.831289      0.583256     Biso  1.000000 O
   O43        1.0     0.285384      0.581305      0.916744     Biso  1.000000 O
   O44        1.0     0.339616      0.918695      0.666762     Biso  1.000000 O
   O45        1.0     0.339616      0.831289      0.666762     Biso  1.000000 O
   O46        1.0     0.285384      0.668711      0.916744     Biso  1.000000 O
   O47        1.0     0.464616      0.918695      0.583256     Biso  1.000000 O
   O48        1.0     0.410384      0.581305      0.833238     Biso  1.000000 O
   O49        1.0     0.327955      0.668401      0.827749     Biso  1.000000 O
   O50        1.0     0.297045      0.831599      0.577767     Biso  1.000000 O
   O51        1.0     0.452955      0.581614      0.922233     Biso  1.000000 O
   O52        1.0     0.422045      0.918386      0.672251     Biso  1.000000 O
   O53        1.0     0.422045      0.831599      0.672251     Biso  1.000000 O
   O54        1.0     0.452955      0.668401      0.922233     Biso  1.000000 O
   O55        1.0     0.297045      0.918386      0.577767     Biso  1.000000 O
   O56        1.0     0.327955      0.581614      0.827749     Biso  1.000000 O
   O57        1.0     0.381234      0.874992      0.595810     Biso  1.000000 O
   O58        1.0     0.493766      0.625008      0.845792     Biso  1.000000 O
   O59        1.0     0.256233      0.874992      0.654208     Biso  1.000000 O
   O60        1.0     0.368767      0.625008      0.904190     Biso  1.000000 O
   O61        1.0     0.160384      0.668711      0.833238     Biso  1.000000 O
   O62        1.0     0.214616      0.831289      0.583256     Biso  1.000000 O
   O63        1.0     0.035384      0.581305      0.916744     Biso  1.000000 O
   O64        1.0     0.089616      0.918695      0.666762     Biso  1.000000 O
   O65        1.0     0.089616      0.831289      0.666762     Biso  1.000000 O
   O66        1.0     0.035384      0.668711      0.916744     Biso  1.000000 O
   O67        1.0     0.214616      0.918695      0.583256     Biso  1.000000 O
   O68        1.0     0.160384      0.581305      0.833238     Biso  1.000000 O
   O69        1.0     0.077955      0.668401      0.827749     Biso  1.000000 O
   O70        1.0     0.047045      0.831599      0.577767     Biso  1.000000 O
   O71        1.0     0.202955      0.581614      0.922233     Biso  1.000000 O
   O72        1.0     0.172045      0.918386      0.672251     Biso  1.000000 O
   O73        1.0     0.172045      0.831599      0.672251     Biso  1.000000 O
   O74        1.0     0.202955      0.668401      0.922233     Biso  1.000000 O
   O75        1.0     0.047045      0.918386      0.577767     Biso  1.000000 O
   O76        1.0     0.077955      0.581614      0.827749     Biso  1.000000 O
   O77        1.0     0.131233      0.874992      0.595810     Biso  1.000000 O
   O78        1.0     0.243766      0.625008      0.845792     Biso  1.000000 O
   O79        1.0     0.006233      0.874992      0.654208     Biso  1.000000 O
   O80        1.0     0.118767      0.625008      0.904190     Biso  1.000000 O
   O81        1.0     0.910384      0.168711      0.833238     Biso  1.000000 O
   O82        1.0     0.964616      0.331289      0.583256     Biso  1.000000 O
   O83        1.0     0.785384      0.081305      0.916744     Biso  1.000000 O
   O84        1.0     0.839616      0.418695      0.666762     Biso  1.000000 O
   O85        1.0     0.839616      0.331289      0.666762     Biso  1.000000 O
   O86        1.0     0.785384      0.168711      0.916744     Biso  1.000000 O
   O87        1.0     0.964616      0.418695      0.583256     Biso  1.000000 O
   O88        1.0     0.910384      0.081305      0.833238     Biso  1.000000 O
   O89        1.0     0.827955      0.168401      0.827749     Biso  1.000000 O
   O90        1.0     0.797045      0.331599      0.577767     Biso  1.000000 O
   O91        1.0     0.952955      0.081614      0.922233     Biso  1.000000 O
   O92        1.0     0.922045      0.418386      0.672251     Biso  1.000000 O
   O93        1.0     0.922045      0.331599      0.672251     Biso  1.000000 O
   O94        1.0     0.952955      0.168401      0.922233     Biso  1.000000 O
   O95        1.0     0.797045      0.418386      0.577767     Biso  1.000000 O
   O96        1.0     0.827955      0.081614      0.827749     Biso  1.000000 O
   O97        1.0     0.881234      0.374992      0.595810     Biso  1.000000 O
   O98        1.0     0.993766      0.125008      0.845792     Biso  1.000000 O
   O99        1.0     0.756234      0.374992      0.654208     Biso  1.000000 O
   O100       1.0     0.868767      0.125008      0.904190     Biso  1.000000 O
   O101       1.0     0.660384      0.168711      0.833238     Biso  1.000000 O
   O102       1.0     0.714616      0.331289      0.583256     Biso  1.000000 O
   O103       1.0     0.535384      0.081305      0.916744     Biso  1.000000 O
   O104       1.0     0.589616      0.418695      0.666762     Biso  1.000000 O
   O105       1.0     0.589616      0.331289      0.666762     Biso  1.000000 O
   O106       1.0     0.535384      0.168711      0.916744     Biso  1.000000 O
   O107       1.0     0.714616      0.418695      0.583256     Biso  1.000000 O
   O108       1.0     0.660384      0.081305      0.833238     Biso  1.000000 O
   O109       1.0     0.577955      0.168401      0.827749     Biso  1.000000 O
   O110       1.0     0.547045      0.331599      0.577767     Biso  1.000000 O
   O111       1.0     0.702955      0.081614      0.922233     Biso  1.000000 O
   O112       1.0     0.672045      0.418386      0.672251     Biso  1.000000 O
   O113       1.0     0.672045      0.331599      0.672251     Biso  1.000000 O
   O114       1.0     0.702955      0.168401      0.922233     Biso  1.000000 O
   O115       1.0     0.547045      0.418386      0.577767     Biso  1.000000 O
   O116       1.0     0.577955      0.081614      0.827749     Biso  1.000000 O
   O117       1.0     0.631234      0.374992      0.595810     Biso  1.000000 O
   O118       1.0     0.743766      0.125008      0.845792     Biso  1.000000 O
   O119       1.0     0.506234      0.374992      0.654208     Biso  1.000000 O
   O120       1.0     0.618766      0.125008      0.904190     Biso  1.000000 O
   O121       1.0     0.410384      0.168711      0.833238     Biso  1.000000 O
   O122       1.0     0.464616      0.331289      0.583256     Biso  1.000000 O
   O123       1.0     0.285384      0.081305      0.916744     Biso  1.000000 O
   O124       1.0     0.339616      0.418695      0.666762     Biso  1.000000 O
   O125       1.0     0.339616      0.331289      0.666762     Biso  1.000000 O
   O126       1.0     0.285384      0.168711      0.916744     Biso  1.000000 O
   O127       1.0     0.464616      0.418695      0.583256     Biso  1.000000 O
   O128       1.0     0.410384      0.081305      0.833238     Biso  1.000000 O
   O129       1.0     0.327955      0.168401      0.827749     Biso  1.000000 O
   O130       1.0     0.297045      0.331599      0.577767     Biso  1.000000 O
   O131       1.0     0.452955      0.081614      0.922233     Biso  1.000000 O
   O132       1.0     0.422045      0.418386      0.672251     Biso  1.000000 O
   O133       1.0     0.422045      0.331599      0.672251     Biso  1.000000 O
   O134       1.0     0.452955      0.168401      0.922233     Biso  1.000000 O
   O135       1.0     0.297045      0.418386      0.577767     Biso  1.000000 O
   O136       1.0     0.327955      0.081614      0.827749     Biso  1.000000 O
   O137       1.0     0.381234      0.374992      0.595810     Biso  1.000000 O
   O138       1.0     0.493766      0.125008      0.845792     Biso  1.000000 O
   O139       1.0     0.256233      0.374992      0.654208     Biso  1.000000 O
   O140       1.0     0.368767      0.125008      0.904190     Biso  1.000000 O
   O141       1.0     0.160384      0.168711      0.833238     Biso  1.000000 O
   O142       1.0     0.214616      0.331289      0.583256     Biso  1.000000 O
   O143       1.0     0.035384      0.081305      0.916744     Biso  1.000000 O
   O144       1.0     0.089616      0.418695      0.666762     Biso  1.000000 O
   O145       1.0     0.089616      0.331289      0.666762     Biso  1.000000 O
   O146       1.0     0.035384      0.168711      0.916744     Biso  1.000000 O
   O147       1.0     0.214616      0.418695      0.583256     Biso  1.000000 O
   O148       1.0     0.160384      0.081305      0.833238     Biso  1.000000 O
   O149       1.0     0.077955      0.168401      0.827749     Biso  1.000000 O
   O150       1.0     0.047045      0.331599      0.577767     Biso  1.000000 O
   O151       1.0     0.202955      0.081614      0.922233     Biso  1.000000 O
   O152       1.0     0.172045      0.418386      0.672251     Biso  1.000000 O
   O153       1.0     0.172045      0.331599      0.672251     Biso  1.000000 O
   O154       1.0     0.202955      0.168401      0.922233     Biso  1.000000 O
   O155       1.0     0.047045      0.418386      0.577767     Biso  1.000000 O
   O156       1.0     0.077955      0.081614      0.827749     Biso  1.000000 O
   O157       1.0     0.131233      0.374992      0.595810     Biso  1.000000 O
   O158       1.0     0.243766      0.125008      0.845792     Biso  1.000000 O
   O159       1.0     0.006233      0.374992      0.654208     Biso  1.000000 O
   O160       1.0     0.118767      0.125008      0.904190     Biso  1.000000 O
   O161       1.0     0.910384      0.668711      0.333238     Biso  1.000000 O
   O162       1.0     0.964616      0.831289      0.083256     Biso  1.000000 O
   O163       1.0     0.785384      0.581305      0.416744     Biso  1.000000 O
   O164       1.0     0.839616      0.918695      0.166762     Biso  1.000000 O
   O165       1.0     0.839616      0.831289      0.166762     Biso  1.000000 O
   O166       1.0     0.785384      0.668711      0.416744     Biso  1.000000 O
   O167       1.0     0.964616      0.918695      0.083256     Biso  1.000000 O
   O168       1.0     0.910384      0.581305      0.333238     Biso  1.000000 O
   O169       1.0     0.827955      0.668401      0.327749     Biso  1.000000 O
   O170       1.0     0.797045      0.831599      0.077767     Biso  1.000000 O
   O171       1.0     0.952955      0.581614      0.422233     Biso  1.000000 O
   O172       1.0     0.922045      0.918386      0.172251     Biso  1.000000 O
   O173       1.0     0.922045      0.831599      0.172251     Biso  1.000000 O
   O174       1.0     0.952955      0.668401      0.422233     Biso  1.000000 O
   O175       1.0     0.797045      0.918386      0.077767     Biso  1.000000 O
   O176       1.0     0.827955      0.581614      0.327749     Biso  1.000000 O
   O177       1.0     0.881234      0.874992      0.095810     Biso  1.000000 O
   O178       1.0     0.993766      0.625008      0.345792     Biso  1.000000 O
   O179       1.0     0.756234      0.874992      0.154208     Biso  1.000000 O
   O180       1.0     0.868767      0.625008      0.404190     Biso  1.000000 O
   O181       1.0     0.660384      0.668711      0.333238     Biso  1.000000 O
   O182       1.0     0.714616      0.831289      0.083256     Biso  1.000000 O
   O183       1.0     0.535384      0.581305      0.416744     Biso  1.000000 O
   O184       1.0     0.589616      0.918695      0.166762     Biso  1.000000 O
   O185       1.0     0.589616      0.831289      0.166762     Biso  1.000000 O
   O186       1.0     0.535384      0.668711      0.416744     Biso  1.000000 O
   O187       1.0     0.714616      0.918695      0.083256     Biso  1.000000 O
   O188       1.0     0.660384      0.581305      0.333238     Biso  1.000000 O
   O189       1.0     0.577955      0.668401      0.327749     Biso  1.000000 O
   O190       1.0     0.547045      0.831599      0.077767     Biso  1.000000 O
   O191       1.0     0.702955      0.581614      0.422233     Biso  1.000000 O
   O192       1.0     0.672045      0.918386      0.172251     Biso  1.000000 O
   O193       1.0     0.672045      0.831599      0.172251     Biso  1.000000 O
   O194       1.0     0.702955      0.668401      0.422233     Biso  1.000000 O
   O195       1.0     0.547045      0.918386      0.077767     Biso  1.000000 O
   O196       1.0     0.577955      0.581614      0.327749     Biso  1.000000 O
   O197       1.0     0.631234      0.874992      0.095810     Biso  1.000000 O
   O198       1.0     0.743766      0.625008      0.345792     Biso  1.000000 O
   O199       1.0     0.506234      0.874992      0.154208     Biso  1.000000 O
   O200       1.0     0.618766      0.625008      0.404190     Biso  1.000000 O
   O201       1.0     0.410384      0.668711      0.333238     Biso  1.000000 O
   O202       1.0     0.464616      0.831289      0.083256     Biso  1.000000 O
   O203       1.0     0.285384      0.581305      0.416744     Biso  1.000000 O
   O204       1.0     0.339616      0.918695      0.166762     Biso  1.000000 O
   O205       1.0     0.339616      0.831289      0.166762     Biso  1.000000 O
   O206       1.0     0.285384      0.668711      0.416744     Biso  1.000000 O
   O207       1.0     0.464616      0.918695      0.083256     Biso  1.000000 O
   O208       1.0     0.410384      0.581305      0.333238     Biso  1.000000 O
   O209       1.0     0.327955      0.668401      0.327749     Biso  1.000000 O
   O210       1.0     0.297045      0.831599      0.077767     Biso  1.000000 O
   O211       1.0     0.452955      0.581614      0.422233     Biso  1.000000 O
   O212       1.0     0.422045      0.918386      0.172251     Biso  1.000000 O
   O213       1.0     0.422045      0.831599      0.172251     Biso  1.000000 O
   O214       1.0     0.452955      0.668401      0.422233     Biso  1.000000 O
   O215       1.0     0.297045      0.918386      0.077767     Biso  1.000000 O
   O216       1.0     0.327955      0.581614      0.327749     Biso  1.000000 O
   O217       1.0     0.381234      0.874992      0.095810     Biso  1.000000 O
   O218       1.0     0.493766      0.625008      0.345792     Biso  1.000000 O
   O219       1.0     0.256233      0.874992      0.154208     Biso  1.000000 O
   O220       1.0     0.368767      0.625008      0.404190     Biso  1.000000 O
   O221       1.0     0.160384      0.668711      0.333238     Biso  1.000000 O
   O222       1.0     0.214616      0.831289      0.083256     Biso  1.000000 O
   O223       1.0     0.035384      0.581305      0.416744     Biso  1.000000 O
   O224       1.0     0.089616      0.918695      0.166762     Biso  1.000000 O
   O225       1.0     0.089616      0.831289      0.166762     Biso  1.000000 O
   O226       1.0     0.035384      0.668711      0.416744     Biso  1.000000 O
   O227       1.0     0.214616      0.918695      0.083256     Biso  1.000000 O
   O228       1.0     0.160384      0.581305      0.333238     Biso  1.000000 O
   O229       1.0     0.077955      0.668401      0.327749     Biso  1.000000 O
   O230       1.0     0.047045      0.831599      0.077767     Biso  1.000000 O
   O231       1.0     0.202955      0.581614      0.422233     Biso  1.000000 O
   O232       1.0     0.172045      0.918386      0.172251     Biso  1.000000 O
   O233       1.0     0.172045      0.831599      0.172251     Biso  1.000000 O
   O234       1.0     0.202955      0.668401      0.422233     Biso  1.000000 O
   O235       1.0     0.047045      0.918386      0.077767     Biso  1.000000 O
   O236       1.0     0.077955      0.581614      0.327749     Biso  1.000000 O
   O237       1.0     0.131233      0.874992      0.095810     Biso  1.000000 O
   O238       1.0     0.243766      0.625008      0.345792     Biso  1.000000 O
   O239       1.0     0.006233      0.874992      0.154208     Biso  1.000000 O
   O240       1.0     0.118767      0.625008      0.404190     Biso  1.000000 O
   O241       1.0     0.910384      0.168711      0.333238     Biso  1.000000 O
   O242       1.0     0.964616      0.331289      0.083256     Biso  1.000000 O
   O243       1.0     0.785384      0.081305      0.416744     Biso  1.000000 O
   O244       1.0     0.839616      0.418695      0.166762     Biso  1.000000 O
   O245       1.0     0.839616      0.331289      0.166762     Biso  1.000000 O
   O246       1.0     0.785384      0.168711      0.416744     Biso  1.000000 O
   O247       1.0     0.964616      0.418695      0.083256     Biso  1.000000 O
   O248       1.0     0.910384      0.081305      0.333238     Biso  1.000000 O
   O249       1.0     0.827955      0.168401      0.327749     Biso  1.000000 O
   O250       1.0     0.797045      0.331599      0.077767     Biso  1.000000 O
   O251       1.0     0.952955      0.081614      0.422233     Biso  1.000000 O
   O252       1.0     0.922045      0.418386      0.172251     Biso  1.000000 O
   O253       1.0     0.922045      0.331599      0.172251     Biso  1.000000 O
   O254       1.0     0.952955      0.168401      0.422233     Biso  1.000000 O
   O255       1.0     0.797045      0.418386      0.077767     Biso  1.000000 O
   O256       1.0     0.827955      0.081614      0.327749     Biso  1.000000 O
   O257       1.0     0.881234      0.374992      0.095810     Biso  1.000000 O
   O258       1.0     0.993766      0.125008      0.345792     Biso  1.000000 O
   O259       1.0     0.756234      0.374992      0.154208     Biso  1.000000 O
   O260       1.0     0.868767      0.125008      0.404190     Biso  1.000000 O
   O261       1.0     0.660384      0.168711      0.333238     Biso  1.000000 O
   O262       1.0     0.714616      0.331289      0.083256     Biso  1.000000 O
   O263       1.0     0.535384      0.081305      0.416744     Biso  1.000000 O
   O264       1.0     0.589616      0.418695      0.166762     Biso  1.000000 O
   O265       1.0     0.589616      0.331289      0.166762     Biso  1.000000 O
   O266       1.0     0.535384      0.168711      0.416744     Biso  1.000000 O
   O267       1.0     0.714616      0.418695      0.083256     Biso  1.000000 O
   O268       1.0     0.660384      0.081305      0.333238     Biso  1.000000 O
   O269       1.0     0.577955      0.168401      0.327749     Biso  1.000000 O
   O270       1.0     0.547045      0.331599      0.077767     Biso  1.000000 O
   O271       1.0     0.702955      0.081614      0.422233     Biso  1.000000 O
   O272       1.0     0.672045      0.418386      0.172251     Biso  1.000000 O
   O273       1.0     0.672045      0.331599      0.172251     Biso  1.000000 O
   O274       1.0     0.702955      0.168401      0.422233     Biso  1.000000 O
   O275       1.0     0.547045      0.418386      0.077767     Biso  1.000000 O
   O276       1.0     0.577955      0.081614      0.327749     Biso  1.000000 O
   O277       1.0     0.631234      0.374992      0.095810     Biso  1.000000 O
   O278       1.0     0.743766      0.125008      0.345792     Biso  1.000000 O
   O279       1.0     0.506234      0.374992      0.154208     Biso  1.000000 O
   O280       1.0     0.618766      0.125008      0.404190     Biso  1.000000 O
   O281       1.0     0.410384      0.168711      0.333238     Biso  1.000000 O
   O282       1.0     0.464616      0.331289      0.083256     Biso  1.000000 O
   O283       1.0     0.285384      0.081305      0.416744     Biso  1.000000 O
   O284       1.0     0.339616      0.418695      0.166762     Biso  1.000000 O
   O285       1.0     0.339616      0.331289      0.166762     Biso  1.000000 O
   O286       1.0     0.285384      0.168711      0.416744     Biso  1.000000 O
   O287       1.0     0.464616      0.418695      0.083256     Biso  1.000000 O
   O288       1.0     0.410384      0.081305      0.333238     Biso  1.000000 O
   O289       1.0     0.327955      0.168401      0.327749     Biso  1.000000 O
   O290       1.0     0.297045      0.331599      0.077767     Biso  1.000000 O
   O291       1.0     0.452955      0.081614      0.422233     Biso  1.000000 O
   O292       1.0     0.422045      0.418386      0.172251     Biso  1.000000 O
   O293       1.0     0.422045      0.331599      0.172251     Biso  1.000000 O
   O294       1.0     0.452955      0.168401      0.422233     Biso  1.000000 O
   O295       1.0     0.297045      0.418386      0.077767     Biso  1.000000 O
   O296       1.0     0.327955      0.081614      0.327749     Biso  1.000000 O
   O297       1.0     0.381234      0.374992      0.095810     Biso  1.000000 O
   O298       1.0     0.493766      0.125008      0.345792     Biso  1.000000 O
   O299       1.0     0.256233      0.374992      0.154208     Biso  1.000000 O
   O300       1.0     0.368767      0.125008      0.404190     Biso  1.000000 O
   O301       1.0     0.160384      0.168711      0.333238     Biso  1.000000 O
   O302       1.0     0.214616      0.331289      0.083256     Biso  1.000000 O
   O303       1.0     0.035384      0.081305      0.416744     Biso  1.000000 O
   O304       1.0     0.089616      0.418695      0.166762     Biso  1.000000 O
   O305       1.0     0.089616      0.331289      0.166762     Biso  1.000000 O
   O306       1.0     0.035384      0.168711      0.416744     Biso  1.000000 O
   O307       1.0     0.214616      0.418695      0.083256     Biso  1.000000 O
   O308       1.0     0.160384      0.081305      0.333238     Biso  1.000000 O
   O309       1.0     0.077955      0.168401      0.327749     Biso  1.000000 O
   O310       1.0     0.047045      0.331599      0.077767     Biso  1.000000 O
   O311       1.0     0.202955      0.081614      0.422233     Biso  1.000000 O
   O312       1.0     0.172045      0.418386      0.172251     Biso  1.000000 O
   O313       1.0     0.172045      0.331599      0.172251     Biso  1.000000 O
   O314       1.0     0.202955      0.168401      0.422233     Biso  1.000000 O
   O315       1.0     0.047045      0.418386      0.077767     Biso  1.000000 O
   O316       1.0     0.077955      0.081614      0.327749     Biso  1.000000 O
   O317       1.0     0.131233      0.374992      0.095810     Biso  1.000000 O
   O318       1.0     0.243766      0.125008      0.345792     Biso  1.000000 O
   O319       1.0     0.006233      0.374992      0.154208     Biso  1.000000 O
   O320       1.0     0.118767      0.125008      0.404190     Biso  1.000000 O
   C1         1.0     0.916874      0.733847      0.768455     Biso  1.000000 C
   C2         1.0     0.958126      0.766153      0.518438     Biso  1.000000 C
   C3         1.0     0.791874      0.516137      0.981563     Biso  1.000000 C
   C4         1.0     0.833126      0.983863      0.731545     Biso  1.000000 C
   C5         1.0     0.833126      0.766153      0.731545     Biso  1.000000 C
   C6         1.0     0.791874      0.733847      0.981563     Biso  1.000000 C
   C7         1.0     0.958126      0.983863      0.518438     Biso  1.000000 C
   C8         1.0     0.916874      0.516137      0.768455     Biso  1.000000 C
   C9         1.0     0.830632      0.733538      0.763039     Biso  1.000000 C
   C10        1.0     0.794368      0.766462      0.513057     Biso  1.000000 C
   C11        1.0     0.955632      0.516447      0.986943     Biso  1.000000 C
   C12        1.0     0.919368      0.983553      0.736961     Biso  1.000000 C
   C13        1.0     0.919368      0.766462      0.736961     Biso  1.000000 C
   C14        1.0     0.955632      0.733538      0.986943     Biso  1.000000 C
   C15        1.0     0.794368      0.983553      0.513057     Biso  1.000000 C
   C16        1.0     0.830632      0.516447      0.763039     Biso  1.000000 C
   C17        1.0     0.872763      0.717556      0.782517     Biso  1.000000 C
   C18        1.0     0.752237      0.782444      0.532499     Biso  1.000000 C
   C19        1.0     0.997763      0.532429      0.967501     Biso  1.000000 C
   C20        1.0     0.877237      0.967571      0.717483     Biso  1.000000 C
   C21        1.0     0.877237      0.782444      0.717483     Biso  1.000000 C
   C22        1.0     0.997763      0.717556      0.967501     Biso  1.000000 C
   C23        1.0     0.752237      0.967571      0.532499     Biso  1.000000 C
   C24        1.0     0.872763      0.532429      0.782517     Biso  1.000000 C
   C25        1.0     0.869537      0.681689      0.816665     Biso  1.000000 C
   C26        1.0     0.755463      0.818311      0.566648     Biso  1.000000 C
   C27        1.0     0.994537      0.568296      0.933352     Biso  1.000000 C
   C28        1.0     0.880463      0.931704      0.683335     Biso  1.000000 C
   C29        1.0     0.880463      0.818311      0.683335     Biso  1.000000 C
   C30        1.0     0.994537      0.681689      0.933352     Biso  1.000000 C
   C31        1.0     0.755463      0.931704      0.566648     Biso  1.000000 C
   C32        1.0     0.869537      0.568296      0.816665     Biso  1.000000 C
   C33        1.0     0.666874      0.733847      0.768455     Biso  1.000000 C
   C34        1.0     0.708126      0.766153      0.518438     Biso  1.000000 C
   C35        1.0     0.541874      0.516137      0.981563     Biso  1.000000 C
   C36        1.0     0.583126      0.983863      0.731545     Biso  1.000000 C
   C37        1.0     0.583126      0.766153      0.731545     Biso  1.000000 C
   C38        1.0     0.541874      0.733847      0.981563     Biso  1.000000 C
   C39        1.0     0.708126      0.983863      0.518438     Biso  1.000000 C
   C40        1.0     0.666874      0.516137      0.768455     Biso  1.000000 C
   C41        1.0     0.580632      0.733538      0.763039     Biso  1.000000 C
   C42        1.0     0.544368      0.766462      0.513057     Biso  1.000000 C
   C43        1.0     0.705632      0.516447      0.986943     Biso  1.000000 C
   C44        1.0     0.669368      0.983553      0.736961     Biso  1.000000 C
   C45        1.0     0.669368      0.766462      0.736961     Biso  1.000000 C
   C46        1.0     0.705632      0.733538      0.986943     Biso  1.000000 C
   C47        1.0     0.544368      0.983553      0.513057     Biso  1.000000 C
   C48        1.0     0.580632      0.516447      0.763039     Biso  1.000000 C
   C49        1.0     0.622763      0.717556      0.782517     Biso  1.000000 C
   C50        1.0     0.502237      0.782444      0.532499     Biso  1.000000 C
   C51        1.0     0.747763      0.532429      0.967501     Biso  1.000000 C
   C52        1.0     0.627237      0.967571      0.717483     Biso  1.000000 C
   C53        1.0     0.627237      0.782444      0.717483     Biso  1.000000 C
   C54        1.0     0.747763      0.717556      0.967501     Biso  1.000000 C
   C55        1.0     0.502237      0.967571      0.532499     Biso  1.000000 C
   C56        1.0     0.622763      0.532429      0.782517     Biso  1.000000 C
   C57        1.0     0.619537      0.681689      0.816665     Biso  1.000000 C
   C58        1.0     0.505463      0.818311      0.566648     Biso  1.000000 C
   C59        1.0     0.744537      0.568296      0.933352     Biso  1.000000 C
   C60        1.0     0.630463      0.931704      0.683335     Biso  1.000000 C
   C61        1.0     0.630463      0.818311      0.683335     Biso  1.000000 C
   C62        1.0     0.744537      0.681689      0.933352     Biso  1.000000 C
   C63        1.0     0.505463      0.931704      0.566648     Biso  1.000000 C
   C64        1.0     0.619537      0.568296      0.816665     Biso  1.000000 C
   C65        1.0     0.416874      0.733847      0.768455     Biso  1.000000 C
   C66        1.0     0.458126      0.766153      0.518438     Biso  1.000000 C
   C67        1.0     0.291874      0.516137      0.981563     Biso  1.000000 C
   C68        1.0     0.333126      0.983863      0.731545     Biso  1.000000 C
   C69        1.0     0.333126      0.766153      0.731545     Biso  1.000000 C
   C70        1.0     0.291874      0.733847      0.981563     Biso  1.000000 C
   C71        1.0     0.458126      0.983863      0.518438     Biso  1.000000 C
   C72        1.0     0.416874      0.516137      0.768455     Biso  1.000000 C
   C73        1.0     0.330632      0.733538      0.763039     Biso  1.000000 C
   C74        1.0     0.294368      0.766462      0.513057     Biso  1.000000 C
   C75        1.0     0.455632      0.516447      0.986943     Biso  1.000000 C
   C76        1.0     0.419368      0.983553      0.736961     Biso  1.000000 C
   C77        1.0     0.419368      0.766462      0.736961     Biso  1.000000 C
   C78        1.0     0.455632      0.733538      0.986943     Biso  1.000000 C
   C79        1.0     0.294368      0.983553      0.513057     Biso  1.000000 C
   C80        1.0     0.330632      0.516447      0.763039     Biso  1.000000 C
   C81        1.0     0.372763      0.717556      0.782517     Biso  1.000000 C
   C82        1.0     0.252237      0.782444      0.532499     Biso  1.000000 C
   C83        1.0     0.497763      0.532429      0.967501     Biso  1.000000 C
   C84        1.0     0.377237      0.967571      0.717483     Biso  1.000000 C
   C85        1.0     0.377237      0.782444      0.717483     Biso  1.000000 C
   C86        1.0     0.497763      0.717556      0.967501     Biso  1.000000 C
   C87        1.0     0.252237      0.967571      0.532499     Biso  1.000000 C
   C88        1.0     0.372763      0.532429      0.782517     Biso  1.000000 C
   C89        1.0     0.369537      0.681689      0.816665     Biso  1.000000 C
   C90        1.0     0.255463      0.818311      0.566648     Biso  1.000000 C
   C91        1.0     0.494537      0.568296      0.933352     Biso  1.000000 C
   C92        1.0     0.380463      0.931704      0.683335     Biso  1.000000 C
   C93        1.0     0.380463      0.818311      0.683335     Biso  1.000000 C
   C94        1.0     0.494537      0.681689      0.933352     Biso  1.000000 C
   C95        1.0     0.255463      0.931704      0.566648     Biso  1.000000 C
   C96        1.0     0.369537      0.568296      0.816665     Biso  1.000000 C
   C97        1.0     0.166874      0.733847      0.768455     Biso  1.000000 C
   C98        1.0     0.208126      0.766153      0.518438     Biso  1.000000 C
   C99        1.0     0.041874      0.516137      0.981563     Biso  1.000000 C
   C100       1.0     0.083126      0.983863      0.731545     Biso  1.000000 C
   C101       1.0     0.083126      0.766153      0.731545     Biso  1.000000 C
   C102       1.0     0.041874      0.733847      0.981563     Biso  1.000000 C
   C103       1.0     0.208126      0.983863      0.518438     Biso  1.000000 C
   C104       1.0     0.166874      0.516137      0.768455     Biso  1.000000 C
   C105       1.0     0.080632      0.733538      0.763039     Biso  1.000000 C
   C106       1.0     0.044368      0.766462      0.513057     Biso  1.000000 C
   C107       1.0     0.205632      0.516447      0.986943     Biso  1.000000 C
   C108       1.0     0.169368      0.983553      0.736961     Biso  1.000000 C
   C109       1.0     0.169368      0.766462      0.736961     Biso  1.000000 C
   C110       1.0     0.205632      0.733538      0.986943     Biso  1.000000 C
   C111       1.0     0.044368      0.983553      0.513057     Biso  1.000000 C
   C112       1.0     0.080632      0.516447      0.763039     Biso  1.000000 C
   C113       1.0     0.122763      0.717556      0.782517     Biso  1.000000 C
   C114       1.0     0.002237      0.782444      0.532499     Biso  1.000000 C
   C115       1.0     0.247763      0.532429      0.967501     Biso  1.000000 C
   C116       1.0     0.127237      0.967571      0.717483     Biso  1.000000 C
   C117       1.0     0.127237      0.782444      0.717483     Biso  1.000000 C
   C118       1.0     0.247763      0.717556      0.967501     Biso  1.000000 C
   C119       1.0     0.002237      0.967571      0.532499     Biso  1.000000 C
   C120       1.0     0.122763      0.532429      0.782517     Biso  1.000000 C
   C121       1.0     0.119537      0.681689      0.816665     Biso  1.000000 C
   C122       1.0     0.005463      0.818311      0.566648     Biso  1.000000 C
   C123       1.0     0.244537      0.568296      0.933352     Biso  1.000000 C
   C124       1.0     0.130463      0.931704      0.683335     Biso  1.000000 C
   C125       1.0     0.130463      0.818311      0.683335     Biso  1.000000 C
   C126       1.0     0.244537      0.681689      0.933352     Biso  1.000000 C
   C127       1.0     0.005463      0.931704      0.566648     Biso  1.000000 C
   C128       1.0     0.119537      0.568296      0.816665     Biso  1.000000 C
   C129       1.0     0.916874      0.233847      0.768455     Biso  1.000000 C
   C130       1.0     0.958126      0.266153      0.518438     Biso  1.000000 C
   C131       1.0     0.791874      0.016137      0.981563     Biso  1.000000 C
   C132       1.0     0.833126      0.483863      0.731545     Biso  1.000000 C
   C133       1.0     0.833126      0.266153      0.731545     Biso  1.000000 C
   C134       1.0     0.791874      0.233847      0.981563     Biso  1.000000 C
   C135       1.0     0.958126      0.483863      0.518438     Biso  1.000000 C
   C136       1.0     0.916874      0.016137      0.768455     Biso  1.000000 C
   C137       1.0     0.830632      0.233538      0.763039     Biso  1.000000 C
   C138       1.0     0.794368      0.266462      0.513057     Biso  1.000000 C
   C139       1.0     0.955632      0.016447      0.986943     Biso  1.000000 C
   C140       1.0     0.919368      0.483553      0.736961     Biso  1.000000 C
   C141       1.0     0.919368      0.266462      0.736961     Biso  1.000000 C
   C142       1.0     0.955632      0.233538      0.986943     Biso  1.000000 C
   C143       1.0     0.794368      0.483553      0.513057     Biso  1.000000 C
   C144       1.0     0.830632      0.016447      0.763039     Biso  1.000000 C
   C145       1.0     0.872763      0.217556      0.782517     Biso  1.000000 C
   C146       1.0     0.752237      0.282444      0.532499     Biso  1.000000 C
   C147       1.0     0.997763      0.032429      0.967501     Biso  1.000000 C
   C148       1.0     0.877237      0.467571      0.717483     Biso  1.000000 C
   C149       1.0     0.877237      0.282444      0.717483     Biso  1.000000 C
   C150       1.0     0.997763      0.217556      0.967501     Biso  1.000000 C
   C151       1.0     0.752237      0.467571      0.532499     Biso  1.000000 C
   C152       1.0     0.872763      0.032429      0.782517     Biso  1.000000 C
   C153       1.0     0.869537      0.181689      0.816665     Biso  1.000000 C
   C154       1.0     0.755463      0.318311      0.566648     Biso  1.000000 C
   C155       1.0     0.994537      0.068296      0.933352     Biso  1.000000 C
   C156       1.0     0.880463      0.431704      0.683335     Biso  1.000000 C
   C157       1.0     0.880463      0.318311      0.683335     Biso  1.000000 C
   C158       1.0     0.994537      0.181689      0.933352     Biso  1.000000 C
   C159       1.0     0.755463      0.431704      0.566648     Biso  1.000000 C
   C160       1.0     0.869537      0.068296      0.816665     Biso  1.000000 C
   C161       1.0     0.666874      0.233847      0.768455     Biso  1.000000 C
   C162       1.0     0.708126      0.266153      0.518438     Biso  1.000000 C
   C163       1.0     0.541874      0.016137      0.981563     Biso  1.000000 C
   C164       1.0     0.583126      0.483863      0.731545     Biso  1.000000 C
   C165       1.0     0.583126      0.266153      0.731545     Biso  1.000000 C
   C166       1.0     0.541874      0.233847      0.981563     Biso  1.000000 C
   C167       1.0     0.708126      0.483863      0.518438     Biso  1.000000 C
   C168       1.0     0.666874      0.016137      0.768455     Biso  1.000000 C
   C169       1.0     0.580632      0.233538      0.763039     Biso  1.000000 C
   C170       1.0     0.544368      0.266462      0.513057     Biso  1.000000 C
   C171       1.0     0.705632      0.016447      0.986943     Biso  1.000000 C
   C172       1.0     0.669368      0.483553      0.736961     Biso  1.000000 C
   C173       1.0     0.669368      0.266462      0.736961     Biso  1.000000 C
   C174       1.0     0.705632      0.233538      0.986943     Biso  1.000000 C
   C175       1.0     0.544368      0.483553      0.513057     Biso  1.000000 C
   C176       1.0     0.580632      0.016447      0.763039     Biso  1.000000 C
   C177       1.0     0.622763      0.217556      0.782517     Biso  1.000000 C
   C178       1.0     0.502237      0.282444      0.532499     Biso  1.000000 C
   C179       1.0     0.747763      0.032429      0.967501     Biso  1.000000 C
   C180       1.0     0.627237      0.467571      0.717483     Biso  1.000000 C
   C181       1.0     0.627237      0.282444      0.717483     Biso  1.000000 C
   C182       1.0     0.747763      0.217556      0.967501     Biso  1.000000 C
   C183       1.0     0.502237      0.467571      0.532499     Biso  1.000000 C
   C184       1.0     0.622763      0.032429      0.782517     Biso  1.000000 C
   C185       1.0     0.619537      0.181689      0.816665     Biso  1.000000 C
   C186       1.0     0.505463      0.318311      0.566648     Biso  1.000000 C
   C187       1.0     0.744537      0.068296      0.933352     Biso  1.000000 C
   C188       1.0     0.630463      0.431704      0.683335     Biso  1.000000 C
   C189       1.0     0.630463      0.318311      0.683335     Biso  1.000000 C
   C190       1.0     0.744537      0.181689      0.933352     Biso  1.000000 C
   C191       1.0     0.505463      0.431704      0.566648     Biso  1.000000 C
   C192       1.0     0.619537      0.068296      0.816665     Biso  1.000000 C
   C193       1.0     0.416874      0.233847      0.768455     Biso  1.000000 C
   C194       1.0     0.458126      0.266153      0.518438     Biso  1.000000 C
   C195       1.0     0.291874      0.016137      0.981563     Biso  1.000000 C
   C196       1.0     0.333126      0.483863      0.731545     Biso  1.000000 C
   C197       1.0     0.333126      0.266153      0.731545     Biso  1.000000 C
   C198       1.0     0.291874      0.233847      0.981563     Biso  1.000000 C
   C199       1.0     0.458126      0.483863      0.518438     Biso  1.000000 C
   C200       1.0     0.416874      0.016137      0.768455     Biso  1.000000 C
   C201       1.0     0.330632      0.233538      0.763039     Biso  1.000000 C
   C202       1.0     0.294368      0.266462      0.513057     Biso  1.000000 C
   C203       1.0     0.455632      0.016447      0.986943     Biso  1.000000 C
   C204       1.0     0.419368      0.483553      0.736961     Biso  1.000000 C
   C205       1.0     0.419368      0.266462      0.736961     Biso  1.000000 C
   C206       1.0     0.455632      0.233538      0.986943     Biso  1.000000 C
   C207       1.0     0.294368      0.483553      0.513057     Biso  1.000000 C
   C208       1.0     0.330632      0.016447      0.763039     Biso  1.000000 C
   C209       1.0     0.372763      0.217556      0.782517     Biso  1.000000 C
   C210       1.0     0.252237      0.282444      0.532499     Biso  1.000000 C
   C211       1.0     0.497763      0.032429      0.967501     Biso  1.000000 C
   C212       1.0     0.377237      0.467571      0.717483     Biso  1.000000 C
   C213       1.0     0.377237      0.282444      0.717483     Biso  1.000000 C
   C214       1.0     0.497763      0.217556      0.967501     Biso  1.000000 C
   C215       1.0     0.252237      0.467571      0.532499     Biso  1.000000 C
   C216       1.0     0.372763      0.032429      0.782517     Biso  1.000000 C
   C217       1.0     0.369537      0.181689      0.816665     Biso  1.000000 C
   C218       1.0     0.255463      0.318311      0.566648     Biso  1.000000 C
   C219       1.0     0.494537      0.068296      0.933352     Biso  1.000000 C
   C220       1.0     0.380463      0.431704      0.683335     Biso  1.000000 C
   C221       1.0     0.380463      0.318311      0.683335     Biso  1.000000 C
   C222       1.0     0.494537      0.181689      0.933352     Biso  1.000000 C
   C223       1.0     0.255463      0.431704      0.566648     Biso  1.000000 C
   C224       1.0     0.369537      0.068296      0.816665     Biso  1.000000 C
   C225       1.0     0.166874      0.233847      0.768455     Biso  1.000000 C
   C226       1.0     0.208126      0.266153      0.518438     Biso  1.000000 C
   C227       1.0     0.041874      0.016137      0.981563     Biso  1.000000 C
   C228       1.0     0.083126      0.483863      0.731545     Biso  1.000000 C
   C229       1.0     0.083126      0.266153      0.731545     Biso  1.000000 C
   C230       1.0     0.041874      0.233847      0.981563     Biso  1.000000 C
   C231       1.0     0.208126      0.483863      0.518438     Biso  1.000000 C
   C232       1.0     0.166874      0.016137      0.768455     Biso  1.000000 C
   C233       1.0     0.080632      0.233538      0.763039     Biso  1.000000 C
   C234       1.0     0.044368      0.266462      0.513057     Biso  1.000000 C
   C235       1.0     0.205632      0.016447      0.986943     Biso  1.000000 C
   C236       1.0     0.169368      0.483553      0.736961     Biso  1.000000 C
   C237       1.0     0.169368      0.266462      0.736961     Biso  1.000000 C
   C238       1.0     0.205632      0.233538      0.986943     Biso  1.000000 C
   C239       1.0     0.044368      0.483553      0.513057     Biso  1.000000 C
   C240       1.0     0.080632      0.016447      0.763039     Biso  1.000000 C
   C241       1.0     0.122763      0.217556      0.782517     Biso  1.000000 C
   C242       1.0     0.002237      0.282444      0.532499     Biso  1.000000 C
   C243       1.0     0.247763      0.032429      0.967501     Biso  1.000000 C
   C244       1.0     0.127237      0.467571      0.717483     Biso  1.000000 C
   C245       1.0     0.127237      0.282444      0.717483     Biso  1.000000 C
   C246       1.0     0.247763      0.217556      0.967501     Biso  1.000000 C
   C247       1.0     0.002237      0.467571      0.532499     Biso  1.000000 C
   C248       1.0     0.122763      0.032429      0.782517     Biso  1.000000 C
   C249       1.0     0.119537      0.181689      0.816665     Biso  1.000000 C
   C250       1.0     0.005463      0.318311      0.566648     Biso  1.000000 C
   C251       1.0     0.244537      0.068296      0.933352     Biso  1.000000 C
   C252       1.0     0.130463      0.431704      0.683335     Biso  1.000000 C
   C253       1.0     0.130463      0.318311      0.683335     Biso  1.000000 C
   C254       1.0     0.244537      0.181689      0.933352     Biso  1.000000 C
   C255       1.0     0.005463      0.431704      0.566648     Biso  1.000000 C
   C256       1.0     0.119537      0.068296      0.816665     Biso  1.000000 C
   C257       1.0     0.916874      0.733847      0.268455     Biso  1.000000 C
   C258       1.0     0.958126      0.766153      0.018437     Biso  1.000000 C
   C259       1.0     0.791874      0.516137      0.481563     Biso  1.000000 C
   C260       1.0     0.833126      0.983863      0.231545     Biso  1.000000 C
   C261       1.0     0.833126      0.766153      0.231545     Biso  1.000000 C
   C262       1.0     0.791874      0.733847      0.481563     Biso  1.000000 C
   C263       1.0     0.958126      0.983863      0.018437     Biso  1.000000 C
   C264       1.0     0.916874      0.516137      0.268455     Biso  1.000000 C
   C265       1.0     0.830632      0.733538      0.263039     Biso  1.000000 C
   C266       1.0     0.794368      0.766462      0.013057     Biso  1.000000 C
   C267       1.0     0.955632      0.516447      0.486943     Biso  1.000000 C
   C268       1.0     0.919368      0.983553      0.236961     Biso  1.000000 C
   C269       1.0     0.919368      0.766462      0.236961     Biso  1.000000 C
   C270       1.0     0.955632      0.733538      0.486943     Biso  1.000000 C
   C271       1.0     0.794368      0.983553      0.013057     Biso  1.000000 C
   C272       1.0     0.830632      0.516447      0.263039     Biso  1.000000 C
   C273       1.0     0.872763      0.717556      0.282517     Biso  1.000000 C
   C274       1.0     0.752237      0.782444      0.032499     Biso  1.000000 C
   C275       1.0     0.997763      0.532429      0.467501     Biso  1.000000 C
   C276       1.0     0.877237      0.967571      0.217483     Biso  1.000000 C
   C277       1.0     0.877237      0.782444      0.217483     Biso  1.000000 C
   C278       1.0     0.997763      0.717556      0.467501     Biso  1.000000 C
   C279       1.0     0.752237      0.967571      0.032499     Biso  1.000000 C
   C280       1.0     0.872763      0.532429      0.282517     Biso  1.000000 C
   C281       1.0     0.869537      0.681689      0.316665     Biso  1.000000 C
   C282       1.0     0.755463      0.818311      0.066648     Biso  1.000000 C
   C283       1.0     0.994537      0.568296      0.433352     Biso  1.000000 C
   C284       1.0     0.880463      0.931704      0.183335     Biso  1.000000 C
   C285       1.0     0.880463      0.818311      0.183335     Biso  1.000000 C
   C286       1.0     0.994537      0.681689      0.433352     Biso  1.000000 C
   C287       1.0     0.755463      0.931704      0.066648     Biso  1.000000 C
   C288       1.0     0.869537      0.568296      0.316665     Biso  1.000000 C
   C289       1.0     0.666874      0.733847      0.268455     Biso  1.000000 C
   C290       1.0     0.708126      0.766153      0.018437     Biso  1.000000 C
   C291       1.0     0.541874      0.516137      0.481563     Biso  1.000000 C
   C292       1.0     0.583126      0.983863      0.231545     Biso  1.000000 C
   C293       1.0     0.583126      0.766153      0.231545     Biso  1.000000 C
   C294       1.0     0.541874      0.733847      0.481563     Biso  1.000000 C
   C295       1.0     0.708126      0.983863      0.018437     Biso  1.000000 C
   C296       1.0     0.666874      0.516137      0.268455     Biso  1.000000 C
   C297       1.0     0.580632      0.733538      0.263039     Biso  1.000000 C
   C298       1.0     0.544368      0.766462      0.013057     Biso  1.000000 C
   C299       1.0     0.705632      0.516447      0.486943     Biso  1.000000 C
   C300       1.0     0.669368      0.983553      0.236961     Biso  1.000000 C
   C301       1.0     0.669368      0.766462      0.236961     Biso  1.000000 C
   C302       1.0     0.705632      0.733538      0.486943     Biso  1.000000 C
   C303       1.0     0.544368      0.983553      0.013057     Biso  1.000000 C
   C304       1.0     0.580632      0.516447      0.263039     Biso  1.000000 C
   C305       1.0     0.622763      0.717556      0.282517     Biso  1.000000 C
   C306       1.0     0.502237      0.782444      0.032499     Biso  1.000000 C
   C307       1.0     0.747763      0.532429      0.467501     Biso  1.000000 C
   C308       1.0     0.627237      0.967571      0.217483     Biso  1.000000 C
   C309       1.0     0.627237      0.782444      0.217483     Biso  1.000000 C
   C310       1.0     0.747763      0.717556      0.467501     Biso  1.000000 C
   C311       1.0     0.502237      0.967571      0.032499     Biso  1.000000 C
   C312       1.0     0.622763      0.532429      0.282517     Biso  1.000000 C
   C313       1.0     0.619537      0.681689      0.316665     Biso  1.000000 C
   C314       1.0     0.505463      0.818311      0.066648     Biso  1.000000 C
   C315       1.0     0.744537      0.568296      0.433352     Biso  1.000000 C
   C316       1.0     0.630463      0.931704      0.183335     Biso  1.000000 C
   C317       1.0     0.630463      0.818311      0.183335     Biso  1.000000 C
   C318       1.0     0.744537      0.681689      0.433352     Biso  1.000000 C
   C319       1.0     0.505463      0.931704      0.066648     Biso  1.000000 C
   C320       1.0     0.619537      0.568296      0.316665     Biso  1.000000 C
   C321       1.0     0.416874      0.733847      0.268455     Biso  1.000000 C
   C322       1.0     0.458126      0.766153      0.018437     Biso  1.000000 C
   C323       1.0     0.291874      0.516137      0.481563     Biso  1.000000 C
   C324       1.0     0.333126      0.983863      0.231545     Biso  1.000000 C
   C325       1.0     0.333126      0.766153      0.231545     Biso  1.000000 C
   C326       1.0     0.291874      0.733847      0.481563     Biso  1.000000 C
   C327       1.0     0.458126      0.983863      0.018437     Biso  1.000000 C
   C328       1.0     0.416874      0.516137      0.268455     Biso  1.000000 C
   C329       1.0     0.330632      0.733538      0.263039     Biso  1.000000 C
   C330       1.0     0.294368      0.766462      0.013057     Biso  1.000000 C
   C331       1.0     0.455632      0.516447      0.486943     Biso  1.000000 C
   C332       1.0     0.419368      0.983553      0.236961     Biso  1.000000 C
   C333       1.0     0.419368      0.766462      0.236961     Biso  1.000000 C
   C334       1.0     0.455632      0.733538      0.486943     Biso  1.000000 C
   C335       1.0     0.294368      0.983553      0.013057     Biso  1.000000 C
   C336       1.0     0.330632      0.516447      0.263039     Biso  1.000000 C
   C337       1.0     0.372763      0.717556      0.282517     Biso  1.000000 C
   C338       1.0     0.252237      0.782444      0.032499     Biso  1.000000 C
   C339       1.0     0.497763      0.532429      0.467501     Biso  1.000000 C
   C340       1.0     0.377237      0.967571      0.217483     Biso  1.000000 C
   C341       1.0     0.377237      0.782444      0.217483     Biso  1.000000 C
   C342       1.0     0.497763      0.717556      0.467501     Biso  1.000000 C
   C343       1.0     0.252237      0.967571      0.032499     Biso  1.000000 C
   C344       1.0     0.372763      0.532429      0.282517     Biso  1.000000 C
   C345       1.0     0.369537      0.681689      0.316665     Biso  1.000000 C
   C346       1.0     0.255463      0.818311      0.066648     Biso  1.000000 C
   C347       1.0     0.494537      0.568296      0.433352     Biso  1.000000 C
   C348       1.0     0.380463      0.931704      0.183335     Biso  1.000000 C
   C349       1.0     0.380463      0.818311      0.183335     Biso  1.000000 C
   C350       1.0     0.494537      0.681689      0.433352     Biso  1.000000 C
   C351       1.0     0.255463      0.931704      0.066648     Biso  1.000000 C
   C352       1.0     0.369537      0.568296      0.316665     Biso  1.000000 C
   C353       1.0     0.166874      0.733847      0.268455     Biso  1.000000 C
   C354       1.0     0.208126      0.766153      0.018437     Biso  1.000000 C
   C355       1.0     0.041874      0.516137      0.481563     Biso  1.000000 C
   C356       1.0     0.083126      0.983863      0.231545     Biso  1.000000 C
   C357       1.0     0.083126      0.766153      0.231545     Biso  1.000000 C
   C358       1.0     0.041874      0.733847      0.481563     Biso  1.000000 C
   C359       1.0     0.208126      0.983863      0.018437     Biso  1.000000 C
   C360       1.0     0.166874      0.516137      0.268455     Biso  1.000000 C
   C361       1.0     0.080632      0.733538      0.263039     Biso  1.000000 C
   C362       1.0     0.044368      0.766462      0.013057     Biso  1.000000 C
   C363       1.0     0.205632      0.516447      0.486943     Biso  1.000000 C
   C364       1.0     0.169368      0.983553      0.236961     Biso  1.000000 C
   C365       1.0     0.169368      0.766462      0.236961     Biso  1.000000 C
   C366       1.0     0.205632      0.733538      0.486943     Biso  1.000000 C
   C367       1.0     0.044368      0.983553      0.013057     Biso  1.000000 C
   C368       1.0     0.080632      0.516447      0.263039     Biso  1.000000 C
   C369       1.0     0.122763      0.717556      0.282517     Biso  1.000000 C
   C370       1.0     0.002237      0.782444      0.032499     Biso  1.000000 C
   C371       1.0     0.247763      0.532429      0.467501     Biso  1.000000 C
   C372       1.0     0.127237      0.967571      0.217483     Biso  1.000000 C
   C373       1.0     0.127237      0.782444      0.217483     Biso  1.000000 C
   C374       1.0     0.247763      0.717556      0.467501     Biso  1.000000 C
   C375       1.0     0.002237      0.967571      0.032499     Biso  1.000000 C
   C376       1.0     0.122763      0.532429      0.282517     Biso  1.000000 C
   C377       1.0     0.119537      0.681689      0.316665     Biso  1.000000 C
   C378       1.0     0.005463      0.818311      0.066648     Biso  1.000000 C
   C379       1.0     0.244537      0.568296      0.433352     Biso  1.000000 C
   C380       1.0     0.130463      0.931704      0.183335     Biso  1.000000 C
   C381       1.0     0.130463      0.818311      0.183335     Biso  1.000000 C
   C382       1.0     0.244537      0.681689      0.433352     Biso  1.000000 C
   C383       1.0     0.005463      0.931704      0.066648     Biso  1.000000 C
   C384       1.0     0.119537      0.568296      0.316665     Biso  1.000000 C
   C385       1.0     0.916874      0.233847      0.268455     Biso  1.000000 C
   C386       1.0     0.958126      0.266153      0.018437     Biso  1.000000 C
   C387       1.0     0.791874      0.016137      0.481563     Biso  1.000000 C
   C388       1.0     0.833126      0.483863      0.231545     Biso  1.000000 C
   C389       1.0     0.833126      0.266153      0.231545     Biso  1.000000 C
   C390       1.0     0.791874      0.233847      0.481563     Biso  1.000000 C
   C391       1.0     0.958126      0.483863      0.018437     Biso  1.000000 C
   C392       1.0     0.916874      0.016137      0.268455     Biso  1.000000 C
   C393       1.0     0.830632      0.233538      0.263039     Biso  1.000000 C
   C394       1.0     0.794368      0.266462      0.013057     Biso  1.000000 C
   C395       1.0     0.955632      0.016447      0.486943     Biso  1.000000 C
   C396       1.0     0.919368      0.483553      0.236961     Biso  1.000000 C
   C397       1.0     0.919368      0.266462      0.236961     Biso  1.000000 C
   C398       1.0     0.955632      0.233538      0.486943     Biso  1.000000 C
   C399       1.0     0.794368      0.483553      0.013057     Biso  1.000000 C
   C400       1.0     0.830632      0.016447      0.263039     Biso  1.000000 C
   C401       1.0     0.872763      0.217556      0.282517     Biso  1.000000 C
   C402       1.0     0.752237      0.282444      0.032499     Biso  1.000000 C
   C403       1.0     0.997763      0.032429      0.467501     Biso  1.000000 C
   C404       1.0     0.877237      0.467571      0.217483     Biso  1.000000 C
   C405       1.0     0.877237      0.282444      0.217483     Biso  1.000000 C
   C406       1.0     0.997763      0.217556      0.467501     Biso  1.000000 C
   C407       1.0     0.752237      0.467571      0.032499     Biso  1.000000 C
   C408       1.0     0.872763      0.032429      0.282517     Biso  1.000000 C
   C409       1.0     0.869537      0.181689      0.316665     Biso  1.000000 C
   C410       1.0     0.755463      0.318311      0.066648     Biso  1.000000 C
   C411       1.0     0.994537      0.068296      0.433352     Biso  1.000000 C
   C412       1.0     0.880463      0.431704      0.183335     Biso  1.000000 C
   C413       1.0     0.880463      0.318311      0.183335     Biso  1.000000 C
   C414       1.0     0.994537      0.181689      0.433352     Biso  1.000000 C
   C415       1.0     0.755463      0.431704      0.066648     Biso  1.000000 C
   C416       1.0     0.869537      0.068296      0.316665     Biso  1.000000 C
   C417       1.0     0.666874      0.233847      0.268455     Biso  1.000000 C
   C418       1.0     0.708126      0.266153      0.018437     Biso  1.000000 C
   C419       1.0     0.541874      0.016137      0.481563     Biso  1.000000 C
   C420       1.0     0.583126      0.483863      0.231545     Biso  1.000000 C
   C421       1.0     0.583126      0.266153      0.231545     Biso  1.000000 C
   C422       1.0     0.541874      0.233847      0.481563     Biso  1.000000 C
   C423       1.0     0.708126      0.483863      0.018437     Biso  1.000000 C
   C424       1.0     0.666874      0.016137      0.268455     Biso  1.000000 C
   C425       1.0     0.580632      0.233538      0.263039     Biso  1.000000 C
   C426       1.0     0.544368      0.266462      0.013057     Biso  1.000000 C
   C427       1.0     0.705632      0.016447      0.486943     Biso  1.000000 C
   C428       1.0     0.669368      0.483553      0.236961     Biso  1.000000 C
   C429       1.0     0.669368      0.266462      0.236961     Biso  1.000000 C
   C430       1.0     0.705632      0.233538      0.486943     Biso  1.000000 C
   C431       1.0     0.544368      0.483553      0.013057     Biso  1.000000 C
   C432       1.0     0.580632      0.016447      0.263039     Biso  1.000000 C
   C433       1.0     0.622763      0.217556      0.282517     Biso  1.000000 C
   C434       1.0     0.502237      0.282444      0.032499     Biso  1.000000 C
   C435       1.0     0.747763      0.032429      0.467501     Biso  1.000000 C
   C436       1.0     0.627237      0.467571      0.217483     Biso  1.000000 C
   C437       1.0     0.627237      0.282444      0.217483     Biso  1.000000 C
   C438       1.0     0.747763      0.217556      0.467501     Biso  1.000000 C
   C439       1.0     0.502237      0.467571      0.032499     Biso  1.000000 C
   C440       1.0     0.622763      0.032429      0.282517     Biso  1.000000 C
   C441       1.0     0.619537      0.181689      0.316665     Biso  1.000000 C
   C442       1.0     0.505463      0.318311      0.066648     Biso  1.000000 C
   C443       1.0     0.744537      0.068296      0.433352     Biso  1.000000 C
   C444       1.0     0.630463      0.431704      0.183335     Biso  1.000000 C
   C445       1.0     0.630463      0.318311      0.183335     Biso  1.000000 C
   C446       1.0     0.744537      0.181689      0.433352     Biso  1.000000 C
   C447       1.0     0.505463      0.431704      0.066648     Biso  1.000000 C
   C448       1.0     0.619537      0.068296      0.316665     Biso  1.000000 C
   C449       1.0     0.416874      0.233847      0.268455     Biso  1.000000 C
   C450       1.0     0.458126      0.266153      0.018437     Biso  1.000000 C
   C451       1.0     0.291874      0.016137      0.481563     Biso  1.000000 C
   C452       1.0     0.333126      0.483863      0.231545     Biso  1.000000 C
   C453       1.0     0.333126      0.266153      0.231545     Biso  1.000000 C
   C454       1.0     0.291874      0.233847      0.481563     Biso  1.000000 C
   C455       1.0     0.458126      0.483863      0.018437     Biso  1.000000 C
   C456       1.0     0.416874      0.016137      0.268455     Biso  1.000000 C
   C457       1.0     0.330632      0.233538      0.263039     Biso  1.000000 C
   C458       1.0     0.294368      0.266462      0.013057     Biso  1.000000 C
   C459       1.0     0.455632      0.016447      0.486943     Biso  1.000000 C
   C460       1.0     0.419368      0.483553      0.236961     Biso  1.000000 C
   C461       1.0     0.419368      0.266462      0.236961     Biso  1.000000 C
   C462       1.0     0.455632      0.233538      0.486943     Biso  1.000000 C
   C463       1.0     0.294368      0.483553      0.013057     Biso  1.000000 C
   C464       1.0     0.330632      0.016447      0.263039     Biso  1.000000 C
   C465       1.0     0.372763      0.217556      0.282517     Biso  1.000000 C
   C466       1.0     0.252237      0.282444      0.032499     Biso  1.000000 C
   C467       1.0     0.497763      0.032429      0.467501     Biso  1.000000 C
   C468       1.0     0.377237      0.467571      0.217483     Biso  1.000000 C
   C469       1.0     0.377237      0.282444      0.217483     Biso  1.000000 C
   C470       1.0     0.497763      0.217556      0.467501     Biso  1.000000 C
   C471       1.0     0.252237      0.467571      0.032499     Biso  1.000000 C
   C472       1.0     0.372763      0.032429      0.282517     Biso  1.000000 C
   C473       1.0     0.369537      0.181689      0.316665     Biso  1.000000 C
   C474       1.0     0.255463      0.318311      0.066648     Biso  1.000000 C
   C475       1.0     0.494537      0.068296      0.433352     Biso  1.000000 C
   C476       1.0     0.380463      0.431704      0.183335     Biso  1.000000 C
   C477       1.0     0.380463      0.318311      0.183335     Biso  1.000000 C
   C478       1.0     0.494537      0.181689      0.433352     Biso  1.000000 C
   C479       1.0     0.255463      0.431704      0.066648     Biso  1.000000 C
   C480       1.0     0.369537      0.068296      0.316665     Biso  1.000000 C
   C481       1.0     0.166874      0.233847      0.268455     Biso  1.000000 C
   C482       1.0     0.208126      0.266153      0.018437     Biso  1.000000 C
   C483       1.0     0.041874      0.016137      0.481563     Biso  1.000000 C
   C484       1.0     0.083126      0.483863      0.231545     Biso  1.000000 C
   C485       1.0     0.083126      0.266153      0.231545     Biso  1.000000 C
   C486       1.0     0.041874      0.233847      0.481563     Biso  1.000000 C
   C487       1.0     0.208126      0.483863      0.018437     Biso  1.000000 C
   C488       1.0     0.166874      0.016137      0.268455     Biso  1.000000 C
   C489       1.0     0.080632      0.233538      0.263039     Biso  1.000000 C
   C490       1.0     0.044368      0.266462      0.013057     Biso  1.000000 C
   C491       1.0     0.205632      0.016447      0.486943     Biso  1.000000 C
   C492       1.0     0.169368      0.483553      0.236961     Biso  1.000000 C
   C493       1.0     0.169368      0.266462      0.236961     Biso  1.000000 C
   C494       1.0     0.205632      0.233538      0.486943     Biso  1.000000 C
   C495       1.0     0.044368      0.483553      0.013057     Biso  1.000000 C
   C496       1.0     0.080632      0.016447      0.263039     Biso  1.000000 C
   C497       1.0     0.122763      0.217556      0.282517     Biso  1.000000 C
   C498       1.0     0.002237      0.282444      0.032499     Biso  1.000000 C
   C499       1.0     0.247763      0.032429      0.467501     Biso  1.000000 C
   C500       1.0     0.127237      0.467571      0.217483     Biso  1.000000 C
   C501       1.0     0.127237      0.282444      0.217483     Biso  1.000000 C
   C502       1.0     0.247763      0.217556      0.467501     Biso  1.000000 C
   C503       1.0     0.002237      0.467571      0.032499     Biso  1.000000 C
   C504       1.0     0.122763      0.032429      0.282517     Biso  1.000000 C
   C505       1.0     0.119537      0.181689      0.316665     Biso  1.000000 C
   C506       1.0     0.005463      0.318311      0.066648     Biso  1.000000 C
   C507       1.0     0.244537      0.068296      0.433352     Biso  1.000000 C
   C508       1.0     0.130463      0.431704      0.183335     Biso  1.000000 C
   C509       1.0     0.130463      0.318311      0.183335     Biso  1.000000 C
   C510       1.0     0.244537      0.181689      0.433352     Biso  1.000000 C
   C511       1.0     0.005463      0.431704      0.066648     Biso  1.000000 C
   C512       1.0     0.119537      0.068296      0.316665     Biso  1.000000 C
   H1         1.0     0.945769      0.722604      0.780544     Biso  1.000000 H
   H2         1.0     0.929231      0.777396      0.530562     Biso  1.000000 H
   H3         1.0     0.820769      0.527411      0.969438     Biso  1.000000 H
   H4         1.0     0.804231      0.972589      0.719456     Biso  1.000000 H
   H5         1.0     0.804231      0.777396      0.719456     Biso  1.000000 H
   H6         1.0     0.820769      0.722604      0.969438     Biso  1.000000 H
   H7         1.0     0.929231      0.972589      0.530562     Biso  1.000000 H
   H8         1.0     0.945769      0.527411      0.780544     Biso  1.000000 H
   H9         1.0     0.800381      0.722295      0.771253     Biso  1.000000 H
   H10        1.0     0.824619      0.777705      0.521235     Biso  1.000000 H
   H11        1.0     0.925381      0.527721      0.978765     Biso  1.000000 H
   H12        1.0     0.949619      0.972279      0.728747     Biso  1.000000 H
   H13        1.0     0.949619      0.777705      0.728747     Biso  1.000000 H
   H14        1.0     0.925381      0.722295      0.978765     Biso  1.000000 H
   H15        1.0     0.824619      0.972279      0.521235     Biso  1.000000 H
   H16        1.0     0.800381      0.527721      0.771253     Biso  1.000000 H
   H17        1.0     0.695769      0.722604      0.780544     Biso  1.000000 H
   H18        1.0     0.679231      0.777396      0.530562     Biso  1.000000 H
   H19        1.0     0.570769      0.527411      0.969438     Biso  1.000000 H
   H20        1.0     0.554231      0.972589      0.719456     Biso  1.000000 H
   H21        1.0     0.554231      0.777396      0.719456     Biso  1.000000 H
   H22        1.0     0.570769      0.722604      0.969438     Biso  1.000000 H
   H23        1.0     0.679231      0.972589      0.530562     Biso  1.000000 H
   H24        1.0     0.695769      0.527411      0.780544     Biso  1.000000 H
   H25        1.0     0.550381      0.722295      0.771253     Biso  1.000000 H
   H26        1.0     0.574619      0.777705      0.521235     Biso  1.000000 H
   H27        1.0     0.675381      0.527721      0.978765     Biso  1.000000 H
   H28        1.0     0.699619      0.972279      0.728747     Biso  1.000000 H
   H29        1.0     0.699619      0.777705      0.728747     Biso  1.000000 H
   H30        1.0     0.675381      0.722295      0.978765     Biso  1.000000 H
   H31        1.0     0.574619      0.972279      0.521235     Biso  1.000000 H
   H32        1.0     0.550381      0.527721      0.771253     Biso  1.000000 H
   H33        1.0     0.445769      0.722604      0.780544     Biso  1.000000 H
   H34        1.0     0.429231      0.777396      0.530562     Biso  1.000000 H
   H35        1.0     0.320769      0.527411      0.969438     Biso  1.000000 H
   H36        1.0     0.304231      0.972589      0.719456     Biso  1.000000 H
   H37        1.0     0.304231      0.777396      0.719456     Biso  1.000000 H
   H38        1.0     0.320769      0.722604      0.969438     Biso  1.000000 H
   H39        1.0     0.429231      0.972589      0.530562     Biso  1.000000 H
   H40        1.0     0.445769      0.527411      0.780544     Biso  1.000000 H
   H41        1.0     0.300381      0.722295      0.771253     Biso  1.000000 H
   H42        1.0     0.324619      0.777705      0.521235     Biso  1.000000 H
   H43        1.0     0.425381      0.527721      0.978765     Biso  1.000000 H
   H44        1.0     0.449619      0.972279      0.728747     Biso  1.000000 H
   H45        1.0     0.449619      0.777705      0.728747     Biso  1.000000 H
   H46        1.0     0.425381      0.722295      0.978765     Biso  1.000000 H
   H47        1.0     0.324619      0.972279      0.521235     Biso  1.000000 H
   H48        1.0     0.300381      0.527721      0.771253     Biso  1.000000 H
   H49        1.0     0.195769      0.722604      0.780544     Biso  1.000000 H
   H50        1.0     0.179231      0.777396      0.530562     Biso  1.000000 H
   H51        1.0     0.070769      0.527411      0.969438     Biso  1.000000 H
   H52        1.0     0.054231      0.972589      0.719456     Biso  1.000000 H
   H53        1.0     0.054231      0.777396      0.719456     Biso  1.000000 H
   H54        1.0     0.070769      0.722604      0.969438     Biso  1.000000 H
   H55        1.0     0.179231      0.972589      0.530562     Biso  1.000000 H
   H56        1.0     0.195769      0.527411      0.780544     Biso  1.000000 H
   H57        1.0     0.050381      0.722295      0.771253     Biso  1.000000 H
   H58        1.0     0.074619      0.777705      0.521235     Biso  1.000000 H
   H59        1.0     0.175381      0.527721      0.978765     Biso  1.000000 H
   H60        1.0     0.199619      0.972279      0.728747     Biso  1.000000 H
   H61        1.0     0.199619      0.777705      0.728747     Biso  1.000000 H
   H62        1.0     0.175381      0.722295      0.978765     Biso  1.000000 H
   H63        1.0     0.074619      0.972279      0.521235     Biso  1.000000 H
   H64        1.0     0.050381      0.527721      0.771253     Biso  1.000000 H
   H65        1.0     0.945769      0.222604      0.780544     Biso  1.000000 H
   H66        1.0     0.929231      0.277396      0.530562     Biso  1.000000 H
   H67        1.0     0.820769      0.027411      0.969438     Biso  1.000000 H
   H68        1.0     0.804231      0.472589      0.719456     Biso  1.000000 H
   H69        1.0     0.804231      0.277396      0.719456     Biso  1.000000 H
   H70        1.0     0.820769      0.222604      0.969438     Biso  1.000000 H
   H71        1.0     0.929231      0.472589      0.530562     Biso  1.000000 H
   H72        1.0     0.945769      0.027411      0.780544     Biso  1.000000 H
   H73        1.0     0.800381      0.222294      0.771253     Biso  1.000000 H
   H74        1.0     0.824619      0.277705      0.521235     Biso  1.000000 H
   H75        1.0     0.925381      0.027721      0.978765     Biso  1.000000 H
   H76        1.0     0.949619      0.472279      0.728747     Biso  1.000000 H
   H77        1.0     0.949619      0.277705      0.728747     Biso  1.000000 H
   H78        1.0     0.925381      0.222294      0.978765     Biso  1.000000 H
   H79        1.0     0.824619      0.472279      0.521235     Biso  1.000000 H
   H80        1.0     0.800381      0.027721      0.771253     Biso  1.000000 H
   H81        1.0     0.695769      0.222604      0.780544     Biso  1.000000 H
   H82        1.0     0.679231      0.277396      0.530562     Biso  1.000000 H
   H83        1.0     0.570769      0.027411      0.969438     Biso  1.000000 H
   H84        1.0     0.554231      0.472589      0.719456     Biso  1.000000 H
   H85        1.0     0.554231      0.277396      0.719456     Biso  1.000000 H
   H86        1.0     0.570769      0.222604      0.969438     Biso  1.000000 H
   H87        1.0     0.679231      0.472589      0.530562     Biso  1.000000 H
   H88        1.0     0.695769      0.027411      0.780544     Biso  1.000000 H
   H89        1.0     0.550381      0.222294      0.771253     Biso  1.000000 H
   H90        1.0     0.574619      0.277705      0.521235     Biso  1.000000 H
   H91        1.0     0.675381      0.027721      0.978765     Biso  1.000000 H
   H92        1.0     0.699619      0.472279      0.728747     Biso  1.000000 H
   H93        1.0     0.699619      0.277705      0.728747     Biso  1.000000 H
   H94        1.0     0.675381      0.222294      0.978765     Biso  1.000000 H
   H95        1.0     0.574619      0.472279      0.521235     Biso  1.000000 H
   H96        1.0     0.550381      0.027721      0.771253     Biso  1.000000 H
   H97        1.0     0.445769      0.222604      0.780544     Biso  1.000000 H
   H98        1.0     0.429231      0.277396      0.530562     Biso  1.000000 H
   H99        1.0     0.320769      0.027411      0.969438     Biso  1.000000 H
   H100       1.0     0.304231      0.472589      0.719456     Biso  1.000000 H
   H101       1.0     0.304231      0.277396      0.719456     Biso  1.000000 H
   H102       1.0     0.320769      0.222604      0.969438     Biso  1.000000 H
   H103       1.0     0.429231      0.472589      0.530562     Biso  1.000000 H
   H104       1.0     0.445769      0.027411      0.780544     Biso  1.000000 H
   H105       1.0     0.300381      0.222294      0.771253     Biso  1.000000 H
   H106       1.0     0.324619      0.277705      0.521235     Biso  1.000000 H
   H107       1.0     0.425381      0.027721      0.978765     Biso  1.000000 H
   H108       1.0     0.449619      0.472279      0.728747     Biso  1.000000 H
   H109       1.0     0.449619      0.277705      0.728747     Biso  1.000000 H
   H110       1.0     0.425381      0.222294      0.978765     Biso  1.000000 H
   H111       1.0     0.324619      0.472279      0.521235     Biso  1.000000 H
   H112       1.0     0.300381      0.027721      0.771253     Biso  1.000000 H
   H113       1.0     0.195769      0.222604      0.780544     Biso  1.000000 H
   H114       1.0     0.179231      0.277396      0.530562     Biso  1.000000 H
   H115       1.0     0.070769      0.027411      0.969438     Biso  1.000000 H
   H116       1.0     0.054231      0.472589      0.719456     Biso  1.000000 H
   H117       1.0     0.054231      0.277396      0.719456     Biso  1.000000 H
   H118       1.0     0.070769      0.222604      0.969438     Biso  1.000000 H
   H119       1.0     0.179231      0.472589      0.530562     Biso  1.000000 H
   H120       1.0     0.195769      0.027411      0.780544     Biso  1.000000 H
   H121       1.0     0.050381      0.222294      0.771253     Biso  1.000000 H
   H122       1.0     0.074619      0.277705      0.521235     Biso  1.000000 H
   H123       1.0     0.175381      0.027721      0.978765     Biso  1.000000 H
   H124       1.0     0.199619      0.472279      0.728747     Biso  1.000000 H
   H125       1.0     0.199619      0.277705      0.728747     Biso  1.000000 H
   H126       1.0     0.175381      0.222294      0.978765     Biso  1.000000 H
   H127       1.0     0.074619      0.472279      0.521235     Biso  1.000000 H
   H128       1.0     0.050381      0.027721      0.771253     Biso  1.000000 H
   H129       1.0     0.945769      0.722604      0.280544     Biso  1.000000 H
   H130       1.0     0.929231      0.777396      0.030562     Biso  1.000000 H
   H131       1.0     0.820769      0.527411      0.469438     Biso  1.000000 H
   H132       1.0     0.804231      0.972589      0.219456     Biso  1.000000 H
   H133       1.0     0.804231      0.777396      0.219456     Biso  1.000000 H
   H134       1.0     0.820769      0.722604      0.469438     Biso  1.000000 H
   H135       1.0     0.929231      0.972589      0.030562     Biso  1.000000 H
   H136       1.0     0.945769      0.527411      0.280544     Biso  1.000000 H
   H137       1.0     0.800381      0.722295      0.271253     Biso  1.000000 H
   H138       1.0     0.824619      0.777705      0.021235     Biso  1.000000 H
   H139       1.0     0.925381      0.527721      0.478765     Biso  1.000000 H
   H140       1.0     0.949619      0.972279      0.228747     Biso  1.000000 H
   H141       1.0     0.949619      0.777705      0.228747     Biso  1.000000 H
   H142       1.0     0.925381      0.722295      0.478765     Biso  1.000000 H
   H143       1.0     0.824619      0.972279      0.021235     Biso  1.000000 H
   H144       1.0     0.800381      0.527721      0.271253     Biso  1.000000 H
   H145       1.0     0.695769      0.722604      0.280544     Biso  1.000000 H
   H146       1.0     0.679231      0.777396      0.030562     Biso  1.000000 H
   H147       1.0     0.570769      0.527411      0.469438     Biso  1.000000 H
   H148       1.0     0.554231      0.972589      0.219456     Biso  1.000000 H
   H149       1.0     0.554231      0.777396      0.219456     Biso  1.000000 H
   H150       1.0     0.570769      0.722604      0.469438     Biso  1.000000 H
   H151       1.0     0.679231      0.972589      0.030562     Biso  1.000000 H
   H152       1.0     0.695769      0.527411      0.280544     Biso  1.000000 H
   H153       1.0     0.550381      0.722295      0.271253     Biso  1.000000 H
   H154       1.0     0.574619      0.777705      0.021235     Biso  1.000000 H
   H155       1.0     0.675381      0.527721      0.478765     Biso  1.000000 H
   H156       1.0     0.699619      0.972279      0.228747     Biso  1.000000 H
   H157       1.0     0.699619      0.777705      0.228747     Biso  1.000000 H
   H158       1.0     0.675381      0.722295      0.478765     Biso  1.000000 H
   H159       1.0     0.574619      0.972279      0.021235     Biso  1.000000 H
   H160       1.0     0.550381      0.527721      0.271253     Biso  1.000000 H
   H161       1.0     0.445769      0.722604      0.280544     Biso  1.000000 H
   H162       1.0     0.429231      0.777396      0.030562     Biso  1.000000 H
   H163       1.0     0.320769      0.527411      0.469438     Biso  1.000000 H
   H164       1.0     0.304231      0.972589      0.219456     Biso  1.000000 H
   H165       1.0     0.304231      0.777396      0.219456     Biso  1.000000 H
   H166       1.0     0.320769      0.722604      0.469438     Biso  1.000000 H
   H167       1.0     0.429231      0.972589      0.030562     Biso  1.000000 H
   H168       1.0     0.445769      0.527411      0.280544     Biso  1.000000 H
   H169       1.0     0.300381      0.722295      0.271253     Biso  1.000000 H
   H170       1.0     0.324619      0.777705      0.021235     Biso  1.000000 H
   H171       1.0     0.425381      0.527721      0.478765     Biso  1.000000 H
   H172       1.0     0.449619      0.972279      0.228747     Biso  1.000000 H
   H173       1.0     0.449619      0.777705      0.228747     Biso  1.000000 H
   H174       1.0     0.425381      0.722295      0.478765     Biso  1.000000 H
   H175       1.0     0.324619      0.972279      0.021235     Biso  1.000000 H
   H176       1.0     0.300381      0.527721      0.271253     Biso  1.000000 H
   H177       1.0     0.195769      0.722604      0.280544     Biso  1.000000 H
   H178       1.0     0.179231      0.777396      0.030562     Biso  1.000000 H
   H179       1.0     0.070769      0.527411      0.469438     Biso  1.000000 H
   H180       1.0     0.054231      0.972589      0.219456     Biso  1.000000 H
   H181       1.0     0.054231      0.777396      0.219456     Biso  1.000000 H
   H182       1.0     0.070769      0.722604      0.469438     Biso  1.000000 H
   H183       1.0     0.179231      0.972589      0.030562     Biso  1.000000 H
   H184       1.0     0.195769      0.527411      0.280544     Biso  1.000000 H
   H185       1.0     0.050381      0.722295      0.271253     Biso  1.000000 H
   H186       1.0     0.074619      0.777705      0.021235     Biso  1.000000 H
   H187       1.0     0.175381      0.527721      0.478765     Biso  1.000000 H
   H188       1.0     0.199619      0.972279      0.228747     Biso  1.000000 H
   H189       1.0     0.199619      0.777705      0.228747     Biso  1.000000 H
   H190       1.0     0.175381      0.722295      0.478765     Biso  1.000000 H
   H191       1.0     0.074619      0.972279      0.021235     Biso  1.000000 H
   H192       1.0     0.050381      0.527721      0.271253     Biso  1.000000 H
   H193       1.0     0.945769      0.222604      0.280544     Biso  1.000000 H
   H194       1.0     0.929231      0.277396      0.030562     Biso  1.000000 H
   H195       1.0     0.820769      0.027411      0.469438     Biso  1.000000 H
   H196       1.0     0.804231      0.472589      0.219456     Biso  1.000000 H
   H197       1.0     0.804231      0.277396      0.219456     Biso  1.000000 H
   H198       1.0     0.820769      0.222604      0.469438     Biso  1.000000 H
   H199       1.0     0.929231      0.472589      0.030562     Biso  1.000000 H
   H200       1.0     0.945769      0.027411      0.280544     Biso  1.000000 H
   H201       1.0     0.800381      0.222294      0.271253     Biso  1.000000 H
   H202       1.0     0.824619      0.277705      0.021235     Biso  1.000000 H
   H203       1.0     0.925381      0.027721      0.478765     Biso  1.000000 H
   H204       1.0     0.949619      0.472279      0.228747     Biso  1.000000 H
   H205       1.0     0.949619      0.277705      0.228747     Biso  1.000000 H
   H206       1.0     0.925381      0.222294      0.478765     Biso  1.000000 H
   H207       1.0     0.824619      0.472279      0.021235     Biso  1.000000 H
   H208       1.0     0.800381      0.027721      0.271253     Biso  1.000000 H
   H209       1.0     0.695769      0.222604      0.280544     Biso  1.000000 H
   H210       1.0     0.679231      0.277396      0.030562     Biso  1.000000 H
   H211       1.0     0.570769      0.027411      0.469438     Biso  1.000000 H
   H212       1.0     0.554231      0.472589      0.219456     Biso  1.000000 H
   H213       1.0     0.554231      0.277396      0.219456     Biso  1.000000 H
   H214       1.0     0.570769      0.222604      0.469438     Biso  1.000000 H
   H215       1.0     0.679231      0.472589      0.030562     Biso  1.000000 H
   H216       1.0     0.695769      0.027411      0.280544     Biso  1.000000 H
   H217       1.0     0.550381      0.222294      0.271253     Biso  1.000000 H
   H218       1.0     0.574619      0.277705      0.021235     Biso  1.000000 H
   H219       1.0     0.675381      0.027721      0.478765     Biso  1.000000 H
   H220       1.0     0.699619      0.472279      0.228747     Biso  1.000000 H
   H221       1.0     0.699619      0.277705      0.228747     Biso  1.000000 H
   H222       1.0     0.675381      0.222294      0.478765     Biso  1.000000 H
   H223       1.0     0.574619      0.472279      0.021235     Biso  1.000000 H
   H224       1.0     0.550381      0.027721      0.271253     Biso  1.000000 H
   H225       1.0     0.445769      0.222604      0.280544     Biso  1.000000 H
   H226       1.0     0.429231      0.277396      0.030562     Biso  1.000000 H
   H227       1.0     0.320769      0.027411      0.469438     Biso  1.000000 H
   H228       1.0     0.304231      0.472589      0.219456     Biso  1.000000 H
   H229       1.0     0.304231      0.277396      0.219456     Biso  1.000000 H
   H230       1.0     0.320769      0.222604      0.469438     Biso  1.000000 H
   H231       1.0     0.429231      0.472589      0.030562     Biso  1.000000 H
   H232       1.0     0.445769      0.027411      0.280544     Biso  1.000000 H
   H233       1.0     0.300381      0.222294      0.271253     Biso  1.000000 H
   H234       1.0     0.324619      0.277705      0.021235     Biso  1.000000 H
   H235       1.0     0.425381      0.027721      0.478765     Biso  1.000000 H
   H236       1.0     0.449619      0.472279      0.228747     Biso  1.000000 H
   H237       1.0     0.449619      0.277705      0.228747     Biso  1.000000 H
   H238       1.0     0.425381      0.222294      0.478765     Biso  1.000000 H
   H239       1.0     0.324619      0.472279      0.021235     Biso  1.000000 H
   H240       1.0     0.300381      0.027721      0.271253     Biso  1.000000 H
   H241       1.0     0.195769      0.222604      0.280544     Biso  1.000000 H
   H242       1.0     0.179231      0.277396      0.030562     Biso  1.000000 H
   H243       1.0     0.070769      0.027411      0.469438     Biso  1.000000 H
   H244       1.0     0.054231      0.472589      0.219456     Biso  1.000000 H
   H245       1.0     0.054231      0.277396      0.219456     Biso  1.000000 H
   H246       1.0     0.070769      0.222604      0.469438     Biso  1.000000 H
   H247       1.0     0.179231      0.472589      0.030562     Biso  1.000000 H
   H248       1.0     0.195769      0.027411      0.280544     Biso  1.000000 H
   H249       1.0     0.050381      0.222294      0.271253     Biso  1.000000 H
   H250       1.0     0.074619      0.277705      0.021235     Biso  1.000000 H
   H251       1.0     0.175381      0.027721      0.478765     Biso  1.000000 H
   H252       1.0     0.199619      0.472279      0.228747     Biso  1.000000 H
   H253       1.0     0.199619      0.277705      0.228747     Biso  1.000000 H
   H254       1.0     0.175381      0.222294      0.478765     Biso  1.000000 H
   H255       1.0     0.074619      0.472279      0.021235     Biso  1.000000 H
   H256       1.0     0.050381      0.027721      0.271253     Biso  1.000000 H
